/*---------------------------------------------------------------------------*\
| =========                 |                                                 |
| \\      /  F ield         | OpenFOAM: The Open Source CFD Toolbox           |
|  \\    /   O peration     | Version:  4.1                                   |
|   \\  /    A nd           | Web:      www.OpenFOAM.org                      |
|    \\/     M anipulation  |                                                 |
\*---------------------------------------------------------------------------*/
Build  : 4.1
Exec   : icoFoam
Date   : Dec 05 2018
Time   : 02:28:56
Host   : "caelinux"
PID    : 8687
Case   : /home/caelinux/OpenFOAM/caelinux-4.1/run/tutorials/incompressible/icoFoam/CourseMesh
nProcs : 1
sigFpe : Enabling floating point exception trapping (FOAM_SIGFPE).
fileModificationChecking : Monitoring run-time modified files using timeStampMaster
allowSystemOperations : Allowing user-supplied system call operations

// * * * * * * * * * * * * * * * * * * * * * * * * * * * * * * * * * * * * * //
Create time

Create mesh for time = 0


PISO: Operating solver in PISO mode

Reading transportProperties

Reading field p

AMI: Creating addressing and weights between 200 source faces and 160 target faces
AMI: Patch source sum(weights) min/max/average = 1, 1, 1
AMI: Patch target sum(weights) min/max/average = 1, 1, 1
AMI: Creating addressing and weights between 80 source faces and 15 target faces
AMI: Patch source sum(weights) min/max/average = 1, 1, 1
AMI: Patch target sum(weights) min/max/average = 1, 1, 1
Reading field U

Reading/calculating face flux field phi


Starting time loop

Time = 0.05

Courant Number mean: 8.11621e-07 max: 0.0112513
smoothSolver:  Solving for Ux, Initial residual = 0, Final residual = 0, No Iterations 0
smoothSolver:  Solving for Uy, Initial residual = 1, Final residual = 1.19257e-09, No Iterations 1
smoothSolver:  Solving for Uz, Initial residual = 1, Final residual = 1.19257e-09, No Iterations 1
DICPCG:  Solving for p, Initial residual = 1, Final residual = 0.0462695, No Iterations 153
DICPCG:  Solving for p, Initial residual = 0.122095, Final residual = 0.00463705, No Iterations 2
DICPCG:  Solving for p, Initial residual = 0.0165817, Final residual = 0.000796761, No Iterations 63
time step continuity errors : sum local = 8.33924e-07, global = -1.34172e-07, cumulative = -1.34172e-07
DICPCG:  Solving for p, Initial residual = 0.00879078, Final residual = 0.00040392, No Iterations 86
DICPCG:  Solving for p, Initial residual = 0.00328047, Final residual = 0.000159636, No Iterations 62
DICPCG:  Solving for p, Initial residual = 0.00218129, Final residual = 9.96961e-07, No Iterations 159
time step continuity errors : sum local = 1.26302e-09, global = -5.76331e-11, cumulative = -1.3423e-07
ExecutionTime = 0.83 s  ClockTime = 1 s

Time = 0.1

Courant Number mean: 0.000382388 max: 1.19569
smoothSolver:  Solving for Ux, Initial residual = 0.199221, Final residual = 2.86404e-06, No Iterations 2
smoothSolver:  Solving for Uy, Initial residual = 0.361439, Final residual = 5.16524e-06, No Iterations 2
smoothSolver:  Solving for Uz, Initial residual = 0.147588, Final residual = 2.93156e-06, No Iterations 2
DICPCG:  Solving for p, Initial residual = 0.0514968, Final residual = 0.00254709, No Iterations 101
DICPCG:  Solving for p, Initial residual = 0.21609, Final residual = 0.00912887, No Iterations 3
DICPCG:  Solving for p, Initial residual = 0.0440721, Final residual = 0.0021892, No Iterations 66
time step continuity errors : sum local = 8.60422e-07, global = 1.48449e-07, cumulative = 1.42189e-08
DICPCG:  Solving for p, Initial residual = 0.0834089, Final residual = 0.00407064, No Iterations 56
DICPCG:  Solving for p, Initial residual = 0.0381131, Final residual = 0.00190476, No Iterations 53
DICPCG:  Solving for p, Initial residual = 0.0199039, Final residual = 9.13029e-07, No Iterations 179
time step continuity errors : sum local = 1.38315e-10, global = 1.12577e-12, cumulative = 1.422e-08
ExecutionTime = 1.43 s  ClockTime = 1 s

Time = 0.15

Courant Number mean: 0.000375842 max: 0.964162
smoothSolver:  Solving for Ux, Initial residual = 0.024847, Final residual = 4.95501e-06, No Iterations 1
smoothSolver:  Solving for Uy, Initial residual = 0.047121, Final residual = 4.66819e-07, No Iterations 2
smoothSolver:  Solving for Uz, Initial residual = 0.0131371, Final residual = 2.95537e-06, No Iterations 1
DICPCG:  Solving for p, Initial residual = 0.588238, Final residual = 0.0195769, No Iterations 2
DICPCG:  Solving for p, Initial residual = 0.127391, Final residual = 0.00628988, No Iterations 49
DICPCG:  Solving for p, Initial residual = 0.0345352, Final residual = 0.00169813, No Iterations 86
time step continuity errors : sum local = 1.16192e-07, global = 9.36954e-10, cumulative = 1.5157e-08
DICPCG:  Solving for p, Initial residual = 0.165499, Final residual = 0.00813882, No Iterations 18
DICPCG:  Solving for p, Initial residual = 0.0513747, Final residual = 0.00251303, No Iterations 46
DICPCG:  Solving for p, Initial residual = 0.0223603, Final residual = 9.65562e-07, No Iterations 180
time step continuity errors : sum local = 4.24072e-11, global = -1.54125e-12, cumulative = 1.51555e-08
ExecutionTime = 1.96 s  ClockTime = 2 s

Time = 0.2

Courant Number mean: 0.000377243 max: 0.982746
smoothSolver:  Solving for Ux, Initial residual = 0.00803603, Final residual = 3.50671e-06, No Iterations 1
smoothSolver:  Solving for Uy, Initial residual = 0.0120701, Final residual = 5.18032e-06, No Iterations 1
smoothSolver:  Solving for Uz, Initial residual = 0.00276616, Final residual = 1.77533e-06, No Iterations 1
DICPCG:  Solving for p, Initial residual = 0.268559, Final residual = 0.0125996, No Iterations 6
DICPCG:  Solving for p, Initial residual = 0.13359, Final residual = 0.00638221, No Iterations 22
DICPCG:  Solving for p, Initial residual = 0.0443614, Final residual = 0.00212418, No Iterations 43
time step continuity errors : sum local = 6.52427e-08, global = 8.02204e-09, cumulative = 2.31775e-08
DICPCG:  Solving for p, Initial residual = 0.053174, Final residual = 0.00245426, No Iterations 25
DICPCG:  Solving for p, Initial residual = 0.025729, Final residual = 0.00126586, No Iterations 32
DICPCG:  Solving for p, Initial residual = 0.0141725, Final residual = 9.73271e-07, No Iterations 172
time step continuity errors : sum local = 2.67909e-11, global = -8.33562e-13, cumulative = 2.31767e-08
ExecutionTime = 2.4 s  ClockTime = 2 s

Time = 0.25

Courant Number mean: 0.000376584 max: 0.961364
smoothSolver:  Solving for Ux, Initial residual = 0.00439008, Final residual = 3.40776e-06, No Iterations 1
smoothSolver:  Solving for Uy, Initial residual = 0.00420125, Final residual = 2.07932e-06, No Iterations 1
smoothSolver:  Solving for Uz, Initial residual = 0.000916285, Final residual = 9.67239e-07, No Iterations 1
DICPCG:  Solving for p, Initial residual = 0.24197, Final residual = 0.0101992, No Iterations 3
DICPCG:  Solving for p, Initial residual = 0.0861396, Final residual = 0.00420059, No Iterations 17
DICPCG:  Solving for p, Initial residual = 0.0314056, Final residual = 0.00154768, No Iterations 21
time step continuity errors : sum local = 2.93967e-08, global = -9.58266e-10, cumulative = 2.22184e-08
DICPCG:  Solving for p, Initial residual = 0.0205451, Final residual = 0.000934335, No Iterations 25
DICPCG:  Solving for p, Initial residual = 0.0100556, Final residual = 0.000453331, No Iterations 31
DICPCG:  Solving for p, Initial residual = 0.00566912, Final residual = 9.30294e-07, No Iterations 163
time step continuity errors : sum local = 1.73783e-11, global = 8.47777e-14, cumulative = 2.22185e-08
ExecutionTime = 2.81 s  ClockTime = 3 s

Time = 0.3

Courant Number mean: 0.000376334 max: 0.947849
smoothSolver:  Solving for Ux, Initial residual = 0.00430463, Final residual = 4.30825e-06, No Iterations 1
smoothSolver:  Solving for Uy, Initial residual = 0.00275889, Final residual = 1.51096e-06, No Iterations 1
smoothSolver:  Solving for Uz, Initial residual = 0.000684351, Final residual = 6.23714e-07, No Iterations 1
DICPCG:  Solving for p, Initial residual = 0.162421, Final residual = 0.0066137, No Iterations 2
DICPCG:  Solving for p, Initial residual = 0.0370884, Final residual = 0.00180067, No Iterations 23
DICPCG:  Solving for p, Initial residual = 0.0281622, Final residual = 0.00125158, No Iterations 13
time step continuity errors : sum local = 1.90359e-08, global = 1.04571e-09, cumulative = 2.32642e-08
DICPCG:  Solving for p, Initial residual = 0.0111089, Final residual = 0.000544967, No Iterations 25
DICPCG:  Solving for p, Initial residual = 0.00517144, Final residual = 0.000239382, No Iterations 32
DICPCG:  Solving for p, Initial residual = 0.00299792, Final residual = 9.86891e-07, No Iterations 160
time step continuity errors : sum local = 1.47358e-11, global = -1.35304e-13, cumulative = 2.32641e-08
ExecutionTime = 3.21 s  ClockTime = 3 s

Time = 0.35

Courant Number mean: 0.000376137 max: 0.93656
smoothSolver:  Solving for Ux, Initial residual = 0.00418548, Final residual = 4.11605e-06, No Iterations 1
smoothSolver:  Solving for Uy, Initial residual = 0.0017128, Final residual = 1.17899e-06, No Iterations 1
smoothSolver:  Solving for Uz, Initial residual = 0.000461533, Final residual = 5.56677e-07, No Iterations 1
DICPCG:  Solving for p, Initial residual = 0.117187, Final residual = 0.0035211, No Iterations 2
DICPCG:  Solving for p, Initial residual = 0.0214456, Final residual = 0.00101199, No Iterations 22
DICPCG:  Solving for p, Initial residual = 0.012726, Final residual = 0.000609778, No Iterations 14
time step continuity errors : sum local = 7.78857e-09, global = 1.13423e-10, cumulative = 2.33775e-08
DICPCG:  Solving for p, Initial residual = 0.00714632, Final residual = 0.000342649, No Iterations 26
DICPCG:  Solving for p, Initial residual = 0.00312914, Final residual = 0.000145042, No Iterations 30
DICPCG:  Solving for p, Initial residual = 0.00173847, Final residual = 9.91e-07, No Iterations 152
time step continuity errors : sum local = 1.24692e-11, global = -1.04799e-13, cumulative = 2.33774e-08
ExecutionTime = 3.59 s  ClockTime = 3 s

Time = 0.4

Courant Number mean: 0.000375982 max: 0.924431
smoothSolver:  Solving for Ux, Initial residual = 0.00398902, Final residual = 3.75514e-06, No Iterations 1
smoothSolver:  Solving for Uy, Initial residual = 0.00135073, Final residual = 8.59289e-07, No Iterations 1
smoothSolver:  Solving for Uz, Initial residual = 0.000349747, Final residual = 5.49487e-07, No Iterations 1
DICPCG:  Solving for p, Initial residual = 0.0829713, Final residual = 0.0028227, No Iterations 2
DICPCG:  Solving for p, Initial residual = 0.0151097, Final residual = 0.000706358, No Iterations 18
DICPCG:  Solving for p, Initial residual = 0.00729649, Final residual = 0.000357602, No Iterations 17
time step continuity errors : sum local = 4.04519e-09, global = 3.15466e-10, cumulative = 2.36928e-08
DICPCG:  Solving for p, Initial residual = 0.0052923, Final residual = 0.000245863, No Iterations 25
DICPCG:  Solving for p, Initial residual = 0.0020914, Final residual = 0.00010236, No Iterations 32
DICPCG:  Solving for p, Initial residual = 0.00108134, Final residual = 9.31137e-07, No Iterations 138
time step continuity errors : sum local = 1.04779e-11, global = -4.74504e-13, cumulative = 2.36924e-08
ExecutionTime = 3.97 s  ClockTime = 4 s

Time = 0.45

Courant Number mean: 0.000375829 max: 0.911597
smoothSolver:  Solving for Ux, Initial residual = 0.00380614, Final residual = 3.7075e-06, No Iterations 1
smoothSolver:  Solving for Uy, Initial residual = 0.00102451, Final residual = 7.45828e-07, No Iterations 1
smoothSolver:  Solving for Uz, Initial residual = 0.000286115, Final residual = 5.48205e-07, No Iterations 1
DICPCG:  Solving for p, Initial residual = 0.0680969, Final residual = 0.00171816, No Iterations 2
DICPCG:  Solving for p, Initial residual = 0.00931777, Final residual = 0.000444541, No Iterations 12
DICPCG:  Solving for p, Initial residual = 0.00225665, Final residual = 0.000105058, No Iterations 30
time step continuity errors : sum local = 1.07963e-09, global = 1.73418e-10, cumulative = 2.38658e-08
DICPCG:  Solving for p, Initial residual = 0.0043716, Final residual = 0.000211996, No Iterations 10
DICPCG:  Solving for p, Initial residual = 0.00151405, Final residual = 7.15455e-05, No Iterations 30
DICPCG:  Solving for p, Initial residual = 0.000794666, Final residual = 9.61542e-07, No Iterations 136
time step continuity errors : sum local = 9.8736e-12, global = 5.79514e-13, cumulative = 2.38664e-08
ExecutionTime = 4.33 s  ClockTime = 4 s

Time = 0.5

Courant Number mean: 0.000375681 max: 0.898023
smoothSolver:  Solving for Ux, Initial residual = 0.00367558, Final residual = 3.71098e-06, No Iterations 1
smoothSolver:  Solving for Uy, Initial residual = 0.000894913, Final residual = 6.37131e-07, No Iterations 1
smoothSolver:  Solving for Uz, Initial residual = 0.000244514, Final residual = 5.26228e-07, No Iterations 1
DICPCG:  Solving for p, Initial residual = 0.0564574, Final residual = 0.00149668, No Iterations 2
DICPCG:  Solving for p, Initial residual = 0.00809366, Final residual = 0.000353456, No Iterations 6
DICPCG:  Solving for p, Initial residual = 0.00142635, Final residual = 7.07619e-05, No Iterations 32
time step continuity errors : sum local = 6.76872e-10, global = 3.98057e-11, cumulative = 2.39062e-08
DICPCG:  Solving for p, Initial residual = 0.00303318, Final residual = 0.000142929, No Iterations 6
DICPCG:  Solving for p, Initial residual = 0.00095527, Final residual = 4.46905e-05, No Iterations 28
DICPCG:  Solving for p, Initial residual = 0.00042655, Final residual = 9.5782e-07, No Iterations 102
time step continuity errors : sum local = 9.14923e-12, global = -1.53247e-12, cumulative = 2.39046e-08
ExecutionTime = 4.65 s  ClockTime = 4 s

Time = 0.55

Courant Number mean: 0.000375538 max: 0.884013
smoothSolver:  Solving for Ux, Initial residual = 0.00366616, Final residual = 3.64364e-06, No Iterations 1
smoothSolver:  Solving for Uy, Initial residual = 0.000775117, Final residual = 6.13491e-07, No Iterations 1
smoothSolver:  Solving for Uz, Initial residual = 0.00021778, Final residual = 4.83603e-07, No Iterations 1
DICPCG:  Solving for p, Initial residual = 0.0501273, Final residual = 0.00107644, No Iterations 2
DICPCG:  Solving for p, Initial residual = 0.00794909, Final residual = 0.000319189, No Iterations 4
DICPCG:  Solving for p, Initial residual = 0.00107526, Final residual = 5.22387e-05, No Iterations 33
time step continuity errors : sum local = 4.70297e-10, global = 4.50102e-11, cumulative = 2.39496e-08
DICPCG:  Solving for p, Initial residual = 0.0027321, Final residual = 0.000126536, No Iterations 5
DICPCG:  Solving for p, Initial residual = 0.00070316, Final residual = 3.28242e-05, No Iterations 29
DICPCG:  Solving for p, Initial residual = 0.000333775, Final residual = 9.25973e-07, No Iterations 95
time step continuity errors : sum local = 8.32889e-12, global = -6.156e-13, cumulative = 2.3949e-08
ExecutionTime = 4.96 s  ClockTime = 5 s

Time = 0.6

Courant Number mean: 0.000375439 max: 0.869808
smoothSolver:  Solving for Ux, Initial residual = 0.00361105, Final residual = 3.35497e-06, No Iterations 1
smoothSolver:  Solving for Uy, Initial residual = 0.000704393, Final residual = 5.55537e-07, No Iterations 1
smoothSolver:  Solving for Uz, Initial residual = 0.000196677, Final residual = 4.23801e-07, No Iterations 1
DICPCG:  Solving for p, Initial residual = 0.0430253, Final residual = 0.000871507, No Iterations 2
DICPCG:  Solving for p, Initial residual = 0.00699494, Final residual = 0.000266909, No Iterations 4
DICPCG:  Solving for p, Initial residual = 0.000928033, Final residual = 4.54217e-05, No Iterations 34
time step continuity errors : sum local = 3.87499e-10, global = 2.61659e-11, cumulative = 2.39752e-08
DICPCG:  Solving for p, Initial residual = 0.0023428, Final residual = 0.000103823, No Iterations 5
DICPCG:  Solving for p, Initial residual = 0.000616987, Final residual = 2.96625e-05, No Iterations 28
DICPCG:  Solving for p, Initial residual = 0.000297106, Final residual = 9.83011e-07, No Iterations 128
time step continuity errors : sum local = 8.37884e-12, global = -2.33869e-13, cumulative = 2.3975e-08
ExecutionTime = 5.3 s  ClockTime = 5 s

Time = 0.65

Courant Number mean: 0.000375358 max: 0.855834
smoothSolver:  Solving for Ux, Initial residual = 0.00356584, Final residual = 3.28699e-06, No Iterations 1
smoothSolver:  Solving for Uy, Initial residual = 0.000645205, Final residual = 5.24394e-07, No Iterations 1
smoothSolver:  Solving for Uz, Initial residual = 0.000180226, Final residual = 3.87048e-07, No Iterations 1
DICPCG:  Solving for p, Initial residual = 0.0385767, Final residual = 0.000677909, No Iterations 2
DICPCG:  Solving for p, Initial residual = 0.00618925, Final residual = 0.000290981, No Iterations 3
DICPCG:  Solving for p, Initial residual = 0.00078911, Final residual = 3.76894e-05, No Iterations 33
time step continuity errors : sum local = 3.05643e-10, global = 3.47427e-11, cumulative = 2.40097e-08
DICPCG:  Solving for p, Initial residual = 0.00205871, Final residual = 8.49587e-05, No Iterations 5
DICPCG:  Solving for p, Initial residual = 0.000511937, Final residual = 2.50547e-05, No Iterations 27
DICPCG:  Solving for p, Initial residual = 0.000231634, Final residual = 9.08615e-07, No Iterations 126
time step continuity errors : sum local = 7.36301e-12, global = -9.84184e-15, cumulative = 2.40097e-08
ExecutionTime = 5.64 s  ClockTime = 5 s

Time = 0.7

Courant Number mean: 0.000375271 max: 0.842149
smoothSolver:  Solving for Ux, Initial residual = 0.00350354, Final residual = 3.16864e-06, No Iterations 1
smoothSolver:  Solving for Uy, Initial residual = 0.000601192, Final residual = 5.35542e-07, No Iterations 1
smoothSolver:  Solving for Uz, Initial residual = 0.000167468, Final residual = 3.50569e-07, No Iterations 1
DICPCG:  Solving for p, Initial residual = 0.037039, Final residual = 0.000664342, No Iterations 2
DICPCG:  Solving for p, Initial residual = 0.007189, Final residual = 0.000322318, No Iterations 2
DICPCG:  Solving for p, Initial residual = 0.000882588, Final residual = 4.40037e-05, No Iterations 29
time step continuity errors : sum local = 3.38769e-10, global = 1.13089e-11, cumulative = 2.4021e-08
DICPCG:  Solving for p, Initial residual = 0.00246272, Final residual = 0.000117157, No Iterations 4
DICPCG:  Solving for p, Initial residual = 0.000733358, Final residual = 3.46108e-05, No Iterations 22
DICPCG:  Solving for p, Initial residual = 0.000341669, Final residual = 9.14912e-07, No Iterations 91
time step continuity errors : sum local = 7.03858e-12, global = -1.18765e-12, cumulative = 2.40198e-08
ExecutionTime = 5.93 s  ClockTime = 6 s

Time = 0.75

Courant Number mean: 0.00037518 max: 0.828225
smoothSolver:  Solving for Ux, Initial residual = 0.00346451, Final residual = 2.96889e-06, No Iterations 1
smoothSolver:  Solving for Uy, Initial residual = 0.000565206, Final residual = 4.80456e-07, No Iterations 1
smoothSolver:  Solving for Uz, Initial residual = 0.000158176, Final residual = 2.87954e-07, No Iterations 1
DICPCG:  Solving for p, Initial residual = 0.0362043, Final residual = 0.00050049, No Iterations 2
DICPCG:  Solving for p, Initial residual = 0.00732524, Final residual = 0.000331787, No Iterations 1
DICPCG:  Solving for p, Initial residual = 0.00138425, Final residual = 6.71923e-05, No Iterations 18
time step continuity errors : sum local = 4.93847e-10, global = 1.29196e-11, cumulative = 2.40327e-08
DICPCG:  Solving for p, Initial residual = 0.00399507, Final residual = 0.000196269, No Iterations 1
DICPCG:  Solving for p, Initial residual = 0.00101562, Final residual = 4.59709e-05, No Iterations 21
DICPCG:  Solving for p, Initial residual = 0.000620597, Final residual = 8.90447e-07, No Iterations 93
time step continuity errors : sum local = 6.544e-12, global = 6.87257e-13, cumulative = 2.40334e-08
ExecutionTime = 6.21 s  ClockTime = 6 s

Time = 0.8

Courant Number mean: 0.000375099 max: 0.813839
smoothSolver:  Solving for Ux, Initial residual = 0.00342853, Final residual = 2.78103e-06, No Iterations 1
smoothSolver:  Solving for Uy, Initial residual = 0.0005345, Final residual = 5.31511e-07, No Iterations 1
smoothSolver:  Solving for Uz, Initial residual = 0.000150466, Final residual = 2.20627e-07, No Iterations 1
DICPCG:  Solving for p, Initial residual = 0.0325671, Final residual = 0.000526382, No Iterations 2
DICPCG:  Solving for p, Initial residual = 0.00743631, Final residual = 0.000282798, No Iterations 1
DICPCG:  Solving for p, Initial residual = 0.00138658, Final residual = 6.05819e-05, No Iterations 18
time step continuity errors : sum local = 4.28355e-10, global = -3.1143e-11, cumulative = 2.40023e-08
DICPCG:  Solving for p, Initial residual = 0.00275246, Final residual = 0.00011051, No Iterations 2
DICPCG:  Solving for p, Initial residual = 0.000431528, Final residual = 2.11572e-05, No Iterations 49
DICPCG:  Solving for p, Initial residual = 0.000297389, Final residual = 9.75956e-07, No Iterations 114
time step continuity errors : sum local = 6.89631e-12, global = 2.05412e-13, cumulative = 2.40025e-08
ExecutionTime = 6.53 s  ClockTime = 6 s

Time = 0.85

Courant Number mean: 0.000375038 max: 0.799064
smoothSolver:  Solving for Ux, Initial residual = 0.00338399, Final residual = 2.64692e-06, No Iterations 1
smoothSolver:  Solving for Uy, Initial residual = 0.000511502, Final residual = 5.26551e-07, No Iterations 1
smoothSolver:  Solving for Uz, Initial residual = 0.000144223, Final residual = 2.12035e-07, No Iterations 1
DICPCG:  Solving for p, Initial residual = 0.0281823, Final residual = 0.000481513, No Iterations 2
DICPCG:  Solving for p, Initial residual = 0.00654434, Final residual = 0.000284666, No Iterations 2
DICPCG:  Solving for p, Initial residual = 0.000933796, Final residual = 4.25125e-05, No Iterations 33
time step continuity errors : sum local = 2.87962e-10, global = -1.5814e-12, cumulative = 2.40009e-08
DICPCG:  Solving for p, Initial residual = 0.00248388, Final residual = 0.000123754, No Iterations 2
DICPCG:  Solving for p, Initial residual = 0.000416975, Final residual = 1.84221e-05, No Iterations 27
DICPCG:  Solving for p, Initial residual = 0.000194269, Final residual = 9.36144e-07, No Iterations 122
time step continuity errors : sum local = 6.34357e-12, global = 9.19176e-14, cumulative = 2.4001e-08
ExecutionTime = 6.86 s  ClockTime = 7 s

Time = 0.9

Courant Number mean: 0.000374994 max: 0.784581
smoothSolver:  Solving for Ux, Initial residual = 0.00333584, Final residual = 2.53664e-06, No Iterations 1
smoothSolver:  Solving for Uy, Initial residual = 0.000487982, Final residual = 4.54625e-07, No Iterations 1
smoothSolver:  Solving for Uz, Initial residual = 0.000137933, Final residual = 1.95863e-07, No Iterations 1
DICPCG:  Solving for p, Initial residual = 0.0267917, Final residual = 0.000413084, No Iterations 2
DICPCG:  Solving for p, Initial residual = 0.00554007, Final residual = 0.000241528, No Iterations 2
DICPCG:  Solving for p, Initial residual = 0.000746414, Final residual = 3.57553e-05, No Iterations 33
time step continuity errors : sum local = 2.33003e-10, global = -3.39904e-12, cumulative = 2.39976e-08
DICPCG:  Solving for p, Initial residual = 0.00233393, Final residual = 9.60499e-05, No Iterations 2
DICPCG:  Solving for p, Initial residual = 0.000437659, Final residual = 2.07141e-05, No Iterations 24
DICPCG:  Solving for p, Initial residual = 0.000213412, Final residual = 9.27416e-07, No Iterations 120
time step continuity errors : sum local = 6.04018e-12, global = 1.18564e-13, cumulative = 2.39977e-08
ExecutionTime = 7.19 s  ClockTime = 7 s

Time = 0.95

Courant Number mean: 0.000374957 max: 0.770539
smoothSolver:  Solving for Ux, Initial residual = 0.00334722, Final residual = 2.36941e-06, No Iterations 1
smoothSolver:  Solving for Uy, Initial residual = 0.000467281, Final residual = 4.92865e-07, No Iterations 1
smoothSolver:  Solving for Uz, Initial residual = 0.000133111, Final residual = 1.88007e-07, No Iterations 1
DICPCG:  Solving for p, Initial residual = 0.0272392, Final residual = 0.00033598, No Iterations 2
DICPCG:  Solving for p, Initial residual = 0.00559528, Final residual = 0.000225948, No Iterations 1
DICPCG:  Solving for p, Initial residual = 0.000568758, Final residual = 2.82701e-05, No Iterations 35
time step continuity errors : sum local = 1.76857e-10, global = -6.28169e-13, cumulative = 2.39971e-08
DICPCG:  Solving for p, Initial residual = 0.00354661, Final residual = 0.000137669, No Iterations 1
DICPCG:  Solving for p, Initial residual = 0.000944042, Final residual = 4.4036e-05, No Iterations 5
DICPCG:  Solving for p, Initial residual = 0.000568354, Final residual = 9.51679e-07, No Iterations 110
time step continuity errors : sum local = 5.94297e-12, global = -4.30136e-13, cumulative = 2.39967e-08
ExecutionTime = 7.48 s  ClockTime = 7 s

Time = 1

Courant Number mean: 0.000374925 max: 0.760233
smoothSolver:  Solving for Ux, Initial residual = 0.00331793, Final residual = 2.3191e-06, No Iterations 1
smoothSolver:  Solving for Uy, Initial residual = 0.000449389, Final residual = 4.16083e-07, No Iterations 1
smoothSolver:  Solving for Uz, Initial residual = 0.000129306, Final residual = 1.83946e-07, No Iterations 1
DICPCG:  Solving for p, Initial residual = 0.0243615, Final residual = 0.000344498, No Iterations 2
DICPCG:  Solving for p, Initial residual = 0.00448494, Final residual = 0.000209307, No Iterations 1
DICPCG:  Solving for p, Initial residual = 0.000459147, Final residual = 2.15014e-05, No Iterations 36
time step continuity errors : sum local = 1.29696e-10, global = -5.16949e-12, cumulative = 2.39915e-08
DICPCG:  Solving for p, Initial residual = 0.00224749, Final residual = 0.000101277, No Iterations 1
DICPCG:  Solving for p, Initial residual = 0.000412108, Final residual = 2.04469e-05, No Iterations 9
DICPCG:  Solving for p, Initial residual = 0.000140648, Final residual = 9.02527e-07, No Iterations 123
time step continuity errors : sum local = 5.44644e-12, global = 2.95438e-13, cumulative = 2.39918e-08
ExecutionTime = 7.9 s  ClockTime = 8 s

Time = 1.05

Courant Number mean: 0.000374901 max: 0.761995
smoothSolver:  Solving for Ux, Initial residual = 0.00325823, Final residual = 2.3163e-06, No Iterations 1
smoothSolver:  Solving for Uy, Initial residual = 0.000433459, Final residual = 4.11506e-07, No Iterations 1
smoothSolver:  Solving for Uz, Initial residual = 0.000125641, Final residual = 1.79782e-07, No Iterations 1
DICPCG:  Solving for p, Initial residual = 0.0244632, Final residual = 0.000304179, No Iterations 2
DICPCG:  Solving for p, Initial residual = 0.00442821, Final residual = 0.000182538, No Iterations 1
DICPCG:  Solving for p, Initial residual = 0.000407939, Final residual = 1.92497e-05, No Iterations 36
time step continuity errors : sum local = 1.11541e-10, global = 4.39468e-14, cumulative = 2.39918e-08
DICPCG:  Solving for p, Initial residual = 0.00218697, Final residual = 8.9994e-05, No Iterations 1
DICPCG:  Solving for p, Initial residual = 0.000425144, Final residual = 2.08881e-05, No Iterations 7
DICPCG:  Solving for p, Initial residual = 0.000105928, Final residual = 9.80622e-07, No Iterations 121
time step continuity errors : sum local = 5.68887e-12, global = 1.5788e-13, cumulative = 2.3992e-08
ExecutionTime = 8.22 s  ClockTime = 8 s

Time = 1.1

Courant Number mean: 0.000374877 max: 0.763814
smoothSolver:  Solving for Ux, Initial residual = 0.00323178, Final residual = 2.33629e-06, No Iterations 1
smoothSolver:  Solving for Uy, Initial residual = 0.000418207, Final residual = 4.19117e-07, No Iterations 1
smoothSolver:  Solving for Uz, Initial residual = 0.000122373, Final residual = 1.88279e-07, No Iterations 1
DICPCG:  Solving for p, Initial residual = 0.0250007, Final residual = 0.00115306, No Iterations 1
DICPCG:  Solving for p, Initial residual = 0.00623698, Final residual = 0.000226394, No Iterations 2
DICPCG:  Solving for p, Initial residual = 0.00117112, Final residual = 5.60456e-05, No Iterations 18
time step continuity errors : sum local = 3.14254e-10, global = -1.29639e-11, cumulative = 2.3979e-08
DICPCG:  Solving for p, Initial residual = 0.00219667, Final residual = 0.000101969, No Iterations 1
DICPCG:  Solving for p, Initial residual = 0.000313554, Final residual = 1.40657e-05, No Iterations 28
DICPCG:  Solving for p, Initial residual = 0.000177843, Final residual = 9.48424e-07, No Iterations 113
time step continuity errors : sum local = 5.32487e-12, global = 2.53013e-13, cumulative = 2.39793e-08
ExecutionTime = 8.52 s  ClockTime = 8 s

Time = 1.15

Courant Number mean: 0.000374863 max: 0.765685
smoothSolver:  Solving for Ux, Initial residual = 0.00319898, Final residual = 2.29456e-06, No Iterations 1
smoothSolver:  Solving for Uy, Initial residual = 0.000402465, Final residual = 3.96485e-07, No Iterations 1
smoothSolver:  Solving for Uz, Initial residual = 0.000118977, Final residual = 1.81345e-07, No Iterations 1
DICPCG:  Solving for p, Initial residual = 0.0230134, Final residual = 0.000257323, No Iterations 2
DICPCG:  Solving for p, Initial residual = 0.003735, Final residual = 0.000142306, No Iterations 1
DICPCG:  Solving for p, Initial residual = 0.000383509, Final residual = 1.91678e-05, No Iterations 31
time step continuity errors : sum local = 1.03862e-10, global = -1.10273e-11, cumulative = 2.39682e-08
DICPCG:  Solving for p, Initial residual = 0.00141402, Final residual = 5.42605e-05, No Iterations 2
DICPCG:  Solving for p, Initial residual = 0.000225499, Final residual = 1.11828e-05, No Iterations 42
DICPCG:  Solving for p, Initial residual = 0.000197102, Final residual = 9.6074e-07, No Iterations 101
time step continuity errors : sum local = 5.20462e-12, global = -2.50019e-13, cumulative = 2.3968e-08
ExecutionTime = 8.84 s  ClockTime = 9 s

Time = 1.2

Courant Number mean: 0.000374852 max: 0.767634
smoothSolver:  Solving for Ux, Initial residual = 0.00316951, Final residual = 2.28075e-06, No Iterations 1
smoothSolver:  Solving for Uy, Initial residual = 0.00038843, Final residual = 3.88988e-07, No Iterations 1
smoothSolver:  Solving for Uz, Initial residual = 0.000115988, Final residual = 1.79256e-07, No Iterations 1
DICPCG:  Solving for p, Initial residual = 0.0220382, Final residual = 0.000236893, No Iterations 2
DICPCG:  Solving for p, Initial residual = 0.00368893, Final residual = 0.000131158, No Iterations 1
DICPCG:  Solving for p, Initial residual = 0.000393342, Final residual = 1.84942e-05, No Iterations 29
time step continuity errors : sum local = 9.69951e-11, global = -7.53867e-12, cumulative = 2.39605e-08
DICPCG:  Solving for p, Initial residual = 0.00121474, Final residual = 4.84393e-05, No Iterations 2
DICPCG:  Solving for p, Initial residual = 0.000206147, Final residual = 1.01617e-05, No Iterations 35
DICPCG:  Solving for p, Initial residual = 0.000134279, Final residual = 9.09807e-07, No Iterations 96
time step continuity errors : sum local = 4.77041e-12, global = 1.40215e-13, cumulative = 2.39606e-08
ExecutionTime = 9.14 s  ClockTime = 9 s

Time = 1.25

Courant Number mean: 0.000374846 max: 0.769646
smoothSolver:  Solving for Ux, Initial residual = 0.00314273, Final residual = 2.28284e-06, No Iterations 1
smoothSolver:  Solving for Uy, Initial residual = 0.000376843, Final residual = 3.83024e-07, No Iterations 1
smoothSolver:  Solving for Uz, Initial residual = 0.00011334, Final residual = 1.77111e-07, No Iterations 1
DICPCG:  Solving for p, Initial residual = 0.0205567, Final residual = 0.000209147, No Iterations 2
DICPCG:  Solving for p, Initial residual = 0.0034383, Final residual = 0.000112359, No Iterations 1
DICPCG:  Solving for p, Initial residual = 0.000371196, Final residual = 1.79266e-05, No Iterations 27
time step continuity errors : sum local = 9.11946e-11, global = -7.66008e-12, cumulative = 2.39529e-08
DICPCG:  Solving for p, Initial residual = 0.00100041, Final residual = 4.21324e-05, No Iterations 2
DICPCG:  Solving for p, Initial residual = 0.000173912, Final residual = 8.60516e-06, No Iterations 38
DICPCG:  Solving for p, Initial residual = 0.000124966, Final residual = 9.65897e-07, No Iterations 96
time step continuity errors : sum local = 4.91174e-12, global = 1.87976e-14, cumulative = 2.3953e-08
ExecutionTime = 9.45 s  ClockTime = 9 s

Time = 1.3

Courant Number mean: 0.000374845 max: 0.771691
smoothSolver:  Solving for Ux, Initial residual = 0.00311133, Final residual = 2.29489e-06, No Iterations 1
smoothSolver:  Solving for Uy, Initial residual = 0.000366217, Final residual = 3.70294e-07, No Iterations 1
smoothSolver:  Solving for Uz, Initial residual = 0.000111077, Final residual = 1.72783e-07, No Iterations 1
DICPCG:  Solving for p, Initial residual = 0.020512, Final residual = 0.000194128, No Iterations 2
DICPCG:  Solving for p, Initial residual = 0.00308566, Final residual = 0.000106177, No Iterations 1
DICPCG:  Solving for p, Initial residual = 0.000409619, Final residual = 1.98826e-05, No Iterations 20
time step continuity errors : sum local = 9.81769e-11, global = -2.62803e-12, cumulative = 2.39503e-08
DICPCG:  Solving for p, Initial residual = 0.000880294, Final residual = 4.14326e-05, No Iterations 2
DICPCG:  Solving for p, Initial residual = 0.000165488, Final residual = 8.11332e-06, No Iterations 29
DICPCG:  Solving for p, Initial residual = 9.6238e-05, Final residual = 9.67009e-07, No Iterations 91
time step continuity errors : sum local = 4.77449e-12, global = 2.44973e-14, cumulative = 2.39504e-08
ExecutionTime = 9.74 s  ClockTime = 9 s

Time = 1.35

Courant Number mean: 0.000374844 max: 0.773779
smoothSolver:  Solving for Ux, Initial residual = 0.00312693, Final residual = 2.27433e-06, No Iterations 1
smoothSolver:  Solving for Uy, Initial residual = 0.000357033, Final residual = 3.57218e-07, No Iterations 1
smoothSolver:  Solving for Uz, Initial residual = 0.000109005, Final residual = 1.66373e-07, No Iterations 1
DICPCG:  Solving for p, Initial residual = 0.0205437, Final residual = 0.00102345, No Iterations 1
DICPCG:  Solving for p, Initial residual = 0.00451012, Final residual = 9.83277e-05, No Iterations 2
DICPCG:  Solving for p, Initial residual = 0.00116687, Final residual = 4.41888e-05, No Iterations 3
time step continuity errors : sum local = 2.11691e-10, global = -3.42854e-12, cumulative = 2.39469e-08
DICPCG:  Solving for p, Initial residual = 0.000804254, Final residual = 3.39999e-05, No Iterations 4
DICPCG:  Solving for p, Initial residual = 0.000214681, Final residual = 9.90089e-06, No Iterations 26
DICPCG:  Solving for p, Initial residual = 8.77227e-05, Final residual = 9.06047e-07, No Iterations 94
time step continuity errors : sum local = 4.33967e-12, global = 4.05915e-14, cumulative = 2.3947e-08
ExecutionTime = 10.01 s  ClockTime = 10 s

Time = 1.4

Courant Number mean: 0.000374847 max: 0.775937
smoothSolver:  Solving for Ux, Initial residual = 0.00312424, Final residual = 2.22786e-06, No Iterations 1
smoothSolver:  Solving for Uy, Initial residual = 0.000348881, Final residual = 3.46978e-07, No Iterations 1
smoothSolver:  Solving for Uz, Initial residual = 0.000107276, Final residual = 1.60221e-07, No Iterations 1
DICPCG:  Solving for p, Initial residual = 0.0199862, Final residual = 0.000961334, No Iterations 1
DICPCG:  Solving for p, Initial residual = 0.00415339, Final residual = 9.13061e-05, No Iterations 2
DICPCG:  Solving for p, Initial residual = 0.00128205, Final residual = 4.46658e-05, No Iterations 3
time step continuity errors : sum local = 2.07425e-10, global = 1.31678e-12, cumulative = 2.39483e-08
DICPCG:  Solving for p, Initial residual = 0.000839108, Final residual = 3.9747e-05, No Iterations 2
DICPCG:  Solving for p, Initial residual = 0.000188836, Final residual = 9.25246e-06, No Iterations 21
DICPCG:  Solving for p, Initial residual = 0.000164847, Final residual = 9.21639e-07, No Iterations 58
time step continuity errors : sum local = 4.27887e-12, global = -5.57473e-13, cumulative = 2.39477e-08
ExecutionTime = 10.24 s  ClockTime = 10 s

Time = 1.45

Courant Number mean: 0.000374852 max: 0.778155
smoothSolver:  Solving for Ux, Initial residual = 0.00309483, Final residual = 2.1814e-06, No Iterations 1
smoothSolver:  Solving for Uy, Initial residual = 0.000341561, Final residual = 3.3711e-07, No Iterations 1
smoothSolver:  Solving for Uz, Initial residual = 0.000105939, Final residual = 1.52403e-07, No Iterations 1
DICPCG:  Solving for p, Initial residual = 0.0201072, Final residual = 0.000220557, No Iterations 2
DICPCG:  Solving for p, Initial residual = 0.00276829, Final residual = 0.000101651, No Iterations 1
DICPCG:  Solving for p, Initial residual = 0.000622364, Final residual = 2.48523e-05, No Iterations 7
time step continuity errors : sum local = 1.12029e-10, global = -3.5052e-12, cumulative = 2.39442e-08
DICPCG:  Solving for p, Initial residual = 0.000955055, Final residual = 4.75536e-05, No Iterations 1
DICPCG:  Solving for p, Initial residual = 0.000231254, Final residual = 1.03667e-05, No Iterations 17
DICPCG:  Solving for p, Initial residual = 9.35275e-05, Final residual = 9.81304e-07, No Iterations 104
time step continuity errors : sum local = 4.42067e-12, global = -2.89769e-13, cumulative = 2.39439e-08
ExecutionTime = 10.51 s  ClockTime = 10 s

Time = 1.5

Courant Number mean: 0.000374857 max: 0.780344
smoothSolver:  Solving for Ux, Initial residual = 0.00305481, Final residual = 2.14182e-06, No Iterations 1
smoothSolver:  Solving for Uy, Initial residual = 0.000334389, Final residual = 3.39242e-07, No Iterations 1
smoothSolver:  Solving for Uz, Initial residual = 0.000104308, Final residual = 1.47343e-07, No Iterations 1
DICPCG:  Solving for p, Initial residual = 0.0187982, Final residual = 0.000117192, No Iterations 2
DICPCG:  Solving for p, Initial residual = 0.0023866, Final residual = 7.53005e-05, No Iterations 1
DICPCG:  Solving for p, Initial residual = 0.000379525, Final residual = 1.59839e-05, No Iterations 7
time step continuity errors : sum local = 7.00789e-11, global = -7.34823e-12, cumulative = 2.39366e-08
DICPCG:  Solving for p, Initial residual = 0.000912621, Final residual = 3.16517e-05, No Iterations 1
DICPCG:  Solving for p, Initial residual = 0.000156839, Final residual = 7.55802e-06, No Iterations 44
DICPCG:  Solving for p, Initial residual = 6.0629e-05, Final residual = 8.81631e-07, No Iterations 103
time step continuity errors : sum local = 3.86516e-12, global = -2.01118e-14, cumulative = 2.39366e-08
ExecutionTime = 10.81 s  ClockTime = 11 s

Time = 1.55

Courant Number mean: 0.000374871 max: 0.782568
smoothSolver:  Solving for Ux, Initial residual = 0.00300779, Final residual = 2.11342e-06, No Iterations 1
smoothSolver:  Solving for Uy, Initial residual = 0.000327726, Final residual = 3.26994e-07, No Iterations 1
smoothSolver:  Solving for Uz, Initial residual = 0.000103102, Final residual = 1.42565e-07, No Iterations 1
DICPCG:  Solving for p, Initial residual = 0.0186217, Final residual = 0.000896779, No Iterations 1
DICPCG:  Solving for p, Initial residual = 0.00375321, Final residual = 8.2226e-05, No Iterations 2
DICPCG:  Solving for p, Initial residual = 0.00105987, Final residual = 4.40302e-05, No Iterations 3
time step continuity errors : sum local = 1.88543e-10, global = -2.5873e-12, cumulative = 2.3934e-08
DICPCG:  Solving for p, Initial residual = 0.000807159, Final residual = 3.89509e-05, No Iterations 2
DICPCG:  Solving for p, Initial residual = 0.000163714, Final residual = 7.9644e-06, No Iterations 37
DICPCG:  Solving for p, Initial residual = 0.000104463, Final residual = 9.08133e-07, No Iterations 104
time step continuity errors : sum local = 3.88839e-12, global = 2.77675e-14, cumulative = 2.3934e-08
ExecutionTime = 11.1 s  ClockTime = 11 s

Time = 1.6

Courant Number mean: 0.000374884 max: 0.784775
smoothSolver:  Solving for Ux, Initial residual = 0.00295763, Final residual = 2.03998e-06, No Iterations 1
smoothSolver:  Solving for Uy, Initial residual = 0.00032178, Final residual = 3.19882e-07, No Iterations 1
smoothSolver:  Solving for Uz, Initial residual = 0.000101876, Final residual = 1.35348e-07, No Iterations 1
DICPCG:  Solving for p, Initial residual = 0.0183556, Final residual = 0.000103723, No Iterations 2
DICPCG:  Solving for p, Initial residual = 0.002079, Final residual = 8.24264e-05, No Iterations 1
DICPCG:  Solving for p, Initial residual = 0.000505587, Final residual = 2.46169e-05, No Iterations 6
time step continuity errors : sum local = 1.03194e-10, global = -3.58705e-12, cumulative = 2.39304e-08
DICPCG:  Solving for p, Initial residual = 0.000725228, Final residual = 3.14729e-05, No Iterations 2
DICPCG:  Solving for p, Initial residual = 0.000154568, Final residual = 7.69473e-06, No Iterations 32
DICPCG:  Solving for p, Initial residual = 6.74386e-05, Final residual = 9.51803e-07, No Iterations 95
time step continuity errors : sum local = 3.98966e-12, global = 1.93569e-13, cumulative = 2.39306e-08
ExecutionTime = 11.37 s  ClockTime = 11 s

Time = 1.65

Courant Number mean: 0.000374898 max: 0.787016
smoothSolver:  Solving for Ux, Initial residual = 0.00290833, Final residual = 1.96051e-06, No Iterations 1
smoothSolver:  Solving for Uy, Initial residual = 0.000316744, Final residual = 3.15206e-07, No Iterations 1
smoothSolver:  Solving for Uz, Initial residual = 0.000100877, Final residual = 1.28428e-07, No Iterations 1
DICPCG:  Solving for p, Initial residual = 0.0174268, Final residual = 0.000152831, No Iterations 2
DICPCG:  Solving for p, Initial residual = 0.00240201, Final residual = 7.74006e-05, No Iterations 1
DICPCG:  Solving for p, Initial residual = 0.000440069, Final residual = 2.08709e-05, No Iterations 8
time step continuity errors : sum local = 8.55346e-11, global = -3.38022e-13, cumulative = 2.39303e-08
DICPCG:  Solving for p, Initial residual = 0.000732699, Final residual = 2.70054e-05, No Iterations 2
DICPCG:  Solving for p, Initial residual = 0.000184415, Final residual = 9.17526e-06, No Iterations 20
DICPCG:  Solving for p, Initial residual = 0.000170484, Final residual = 9.70705e-07, No Iterations 91
time step continuity errors : sum local = 3.97703e-12, global = -3.64409e-13, cumulative = 2.39299e-08
ExecutionTime = 11.64 s  ClockTime = 11 s

Time = 1.7

Courant Number mean: 0.000374915 max: 0.789278
smoothSolver:  Solving for Ux, Initial residual = 0.00285652, Final residual = 1.9199e-06, No Iterations 1
smoothSolver:  Solving for Uy, Initial residual = 0.000311265, Final residual = 3.04734e-07, No Iterations 1
smoothSolver:  Solving for Uz, Initial residual = 9.956e-05, Final residual = 1.2399e-07, No Iterations 1
DICPCG:  Solving for p, Initial residual = 0.019715, Final residual = 0.000861745, No Iterations 1
DICPCG:  Solving for p, Initial residual = 0.00509451, Final residual = 8.42044e-05, No Iterations 2
DICPCG:  Solving for p, Initial residual = 0.0012628, Final residual = 5.30979e-05, No Iterations 3
time step continuity errors : sum local = 2.12215e-10, global = -2.09897e-12, cumulative = 2.39278e-08
DICPCG:  Solving for p, Initial residual = 0.00111208, Final residual = 5.09444e-05, No Iterations 1
DICPCG:  Solving for p, Initial residual = 0.000302754, Final residual = 1.38728e-05, No Iterations 15
DICPCG:  Solving for p, Initial residual = 0.000183675, Final residual = 9.98584e-07, No Iterations 108
time step continuity errors : sum local = 3.99173e-12, global = -4.20471e-13, cumulative = 2.39274e-08
ExecutionTime = 11.91 s  ClockTime = 12 s

Time = 1.75

Courant Number mean: 0.000374931 max: 0.791449
smoothSolver:  Solving for Ux, Initial residual = 0.00283265, Final residual = 1.90608e-06, No Iterations 1
smoothSolver:  Solving for Uy, Initial residual = 0.000306925, Final residual = 3.01067e-07, No Iterations 1
smoothSolver:  Solving for Uz, Initial residual = 9.84688e-05, Final residual = 1.22231e-07, No Iterations 1
DICPCG:  Solving for p, Initial residual = 0.0189693, Final residual = 0.000187498, No Iterations 2
DICPCG:  Solving for p, Initial residual = 0.00330798, Final residual = 9.17078e-05, No Iterations 1
DICPCG:  Solving for p, Initial residual = 0.000592214, Final residual = 2.39484e-05, No Iterations 7
time step continuity errors : sum local = 9.34535e-11, global = -1.91853e-12, cumulative = 2.39255e-08
DICPCG:  Solving for p, Initial residual = 0.00112518, Final residual = 4.18373e-05, No Iterations 1
DICPCG:  Solving for p, Initial residual = 0.000192348, Final residual = 9.44554e-06, No Iterations 27
DICPCG:  Solving for p, Initial residual = 0.000182734, Final residual = 9.47471e-07, No Iterations 97
time step continuity errors : sum local = 3.69625e-12, global = -2.50709e-13, cumulative = 2.39252e-08
ExecutionTime = 12.18 s  ClockTime = 12 s

Time = 1.8

Courant Number mean: 0.000374957 max: 0.793599
smoothSolver:  Solving for Ux, Initial residual = 0.00278672, Final residual = 1.8935e-06, No Iterations 1
smoothSolver:  Solving for Uy, Initial residual = 0.000303334, Final residual = 2.92408e-07, No Iterations 1
smoothSolver:  Solving for Uz, Initial residual = 9.73956e-05, Final residual = 1.21807e-07, No Iterations 1
DICPCG:  Solving for p, Initial residual = 0.019713, Final residual = 0.000297749, No Iterations 2
DICPCG:  Solving for p, Initial residual = 0.00385312, Final residual = 0.000156028, No Iterations 1
DICPCG:  Solving for p, Initial residual = 0.000596607, Final residual = 2.90068e-05, No Iterations 28
time step continuity errors : sum local = 1.10723e-10, global = -3.43152e-12, cumulative = 2.39218e-08
DICPCG:  Solving for p, Initial residual = 0.00197637, Final residual = 5.56234e-05, No Iterations 1
DICPCG:  Solving for p, Initial residual = 0.000329221, Final residual = 1.5574e-05, No Iterations 9
DICPCG:  Solving for p, Initial residual = 0.000107847, Final residual = 9.46608e-07, No Iterations 118
time step continuity errors : sum local = 3.60944e-12, global = -8.71776e-14, cumulative = 2.39217e-08
ExecutionTime = 12.48 s  ClockTime = 12 s

Time = 1.85

Courant Number mean: 0.000374982 max: 0.795614
smoothSolver:  Solving for Ux, Initial residual = 0.00272264, Final residual = 1.82743e-06, No Iterations 1
smoothSolver:  Solving for Uy, Initial residual = 0.00029963, Final residual = 2.7578e-07, No Iterations 1
smoothSolver:  Solving for Uz, Initial residual = 9.58409e-05, Final residual = 1.15079e-07, No Iterations 1
DICPCG:  Solving for p, Initial residual = 0.020373, Final residual = 0.000226963, No Iterations 2
DICPCG:  Solving for p, Initial residual = 0.00311576, Final residual = 0.00011951, No Iterations 1
DICPCG:  Solving for p, Initial residual = 0.000516988, Final residual = 2.50252e-05, No Iterations 16
time step continuity errors : sum local = 9.38026e-11, global = 4.80546e-12, cumulative = 2.39265e-08
DICPCG:  Solving for p, Initial residual = 0.00135716, Final residual = 4.70973e-05, No Iterations 1
DICPCG:  Solving for p, Initial residual = 0.000317735, Final residual = 1.55677e-05, No Iterations 5
DICPCG:  Solving for p, Initial residual = 7.91869e-05, Final residual = 9.27673e-07, No Iterations 107
time step continuity errors : sum local = 3.47481e-12, global = 2.90531e-14, cumulative = 2.39265e-08
ExecutionTime = 12.76 s  ClockTime = 12 s

Time = 1.9

Courant Number mean: 0.000374998 max: 0.797487
smoothSolver:  Solving for Ux, Initial residual = 0.00269134, Final residual = 1.81202e-06, No Iterations 1
smoothSolver:  Solving for Uy, Initial residual = 0.000296914, Final residual = 2.66174e-07, No Iterations 1
smoothSolver:  Solving for Uz, Initial residual = 9.44682e-05, Final residual = 1.13312e-07, No Iterations 1
DICPCG:  Solving for p, Initial residual = 0.0169822, Final residual = 0.00016797, No Iterations 2
DICPCG:  Solving for p, Initial residual = 0.00303565, Final residual = 8.48746e-05, No Iterations 1
DICPCG:  Solving for p, Initial residual = 0.000506383, Final residual = 2.51715e-05, No Iterations 5
time step continuity errors : sum local = 9.22809e-11, global = -1.78277e-12, cumulative = 2.39248e-08
DICPCG:  Solving for p, Initial residual = 0.000714659, Final residual = 3.22215e-05, No Iterations 1
DICPCG:  Solving for p, Initial residual = 0.000160135, Final residual = 7.41164e-06, No Iterations 15
DICPCG:  Solving for p, Initial residual = 7.22915e-05, Final residual = 9.64134e-07, No Iterations 95
time step continuity errors : sum local = 3.53474e-12, global = -2.74722e-13, cumulative = 2.39245e-08
ExecutionTime = 13.02 s  ClockTime = 13 s

Time = 1.95

Courant Number mean: 0.000375015 max: 0.7994
smoothSolver:  Solving for Ux, Initial residual = 0.00265229, Final residual = 1.81037e-06, No Iterations 1
smoothSolver:  Solving for Uy, Initial residual = 0.000292775, Final residual = 2.57495e-07, No Iterations 1
smoothSolver:  Solving for Uz, Initial residual = 9.35966e-05, Final residual = 1.12342e-07, No Iterations 1
DICPCG:  Solving for p, Initial residual = 0.0156775, Final residual = 0.000273666, No Iterations 2
DICPCG:  Solving for p, Initial residual = 0.00355301, Final residual = 9.31794e-05, No Iterations 1
DICPCG:  Solving for p, Initial residual = 0.000618342, Final residual = 2.15442e-05, No Iterations 7
time step continuity errors : sum local = 7.73449e-11, global = -2.21748e-12, cumulative = 2.39223e-08
DICPCG:  Solving for p, Initial residual = 0.000622711, Final residual = 2.74419e-05, No Iterations 2
DICPCG:  Solving for p, Initial residual = 0.000170239, Final residual = 8.46683e-06, No Iterations 14
DICPCG:  Solving for p, Initial residual = 5.73169e-05, Final residual = 9.98779e-07, No Iterations 92
time step continuity errors : sum local = 3.58587e-12, global = -3.97356e-13, cumulative = 2.39219e-08
ExecutionTime = 13.28 s  ClockTime = 13 s

Time = 2

Courant Number mean: 0.000375032 max: 0.8013
smoothSolver:  Solving for Ux, Initial residual = 0.00261735, Final residual = 1.80669e-06, No Iterations 1
smoothSolver:  Solving for Uy, Initial residual = 0.00028842, Final residual = 2.49981e-07, No Iterations 1
smoothSolver:  Solving for Uz, Initial residual = 9.24589e-05, Final residual = 1.11623e-07, No Iterations 1
DICPCG:  Solving for p, Initial residual = 0.0149247, Final residual = 0.000220441, No Iterations 2
DICPCG:  Solving for p, Initial residual = 0.00330039, Final residual = 8.73393e-05, No Iterations 1
DICPCG:  Solving for p, Initial residual = 0.000544379, Final residual = 2.2085e-05, No Iterations 7
time step continuity errors : sum local = 7.76619e-11, global = -3.65242e-12, cumulative = 2.39182e-08
DICPCG:  Solving for p, Initial residual = 0.000740689, Final residual = 3.15974e-05, No Iterations 1
DICPCG:  Solving for p, Initial residual = 0.00018957, Final residual = 9.27802e-06, No Iterations 22
DICPCG:  Solving for p, Initial residual = 5.55468e-05, Final residual = 9.47767e-07, No Iterations 88
time step continuity errors : sum local = 3.33252e-12, global = -1.1823e-13, cumulative = 2.39181e-08
ExecutionTime = 13.64 s  ClockTime = 13 s

Time = 2.05

Courant Number mean: 0.000375052 max: 0.803183
smoothSolver:  Solving for Ux, Initial residual = 0.00258155, Final residual = 1.83961e-06, No Iterations 1
smoothSolver:  Solving for Uy, Initial residual = 0.000284321, Final residual = 2.48141e-07, No Iterations 1
smoothSolver:  Solving for Uz, Initial residual = 9.14191e-05, Final residual = 1.14788e-07, No Iterations 1
DICPCG:  Solving for p, Initial residual = 0.0162707, Final residual = 0.000185934, No Iterations 2
DICPCG:  Solving for p, Initial residual = 0.00279266, Final residual = 7.75423e-05, No Iterations 1
DICPCG:  Solving for p, Initial residual = 0.000436235, Final residual = 2.04732e-05, No Iterations 20
time step continuity errors : sum local = 7.06468e-11, global = -1.89154e-12, cumulative = 2.39162e-08
DICPCG:  Solving for p, Initial residual = 0.00107495, Final residual = 2.89604e-05, No Iterations 1
DICPCG:  Solving for p, Initial residual = 0.000186949, Final residual = 8.64538e-06, No Iterations 9
DICPCG:  Solving for p, Initial residual = 5.71435e-05, Final residual = 9.56097e-07, No Iterations 93
time step continuity errors : sum local = 3.30083e-12, global = -2.05055e-13, cumulative = 2.3916e-08
ExecutionTime = 13.91 s  ClockTime = 14 s

Time = 2.1

Courant Number mean: 0.000375078 max: 0.80505
smoothSolver:  Solving for Ux, Initial residual = 0.0025543, Final residual = 1.87427e-06, No Iterations 1
smoothSolver:  Solving for Uy, Initial residual = 0.000280644, Final residual = 2.3366e-07, No Iterations 1
smoothSolver:  Solving for Uz, Initial residual = 9.06569e-05, Final residual = 1.20403e-07, No Iterations 1
DICPCG:  Solving for p, Initial residual = 0.0165935, Final residual = 0.000229075, No Iterations 2
DICPCG:  Solving for p, Initial residual = 0.00277929, Final residual = 8.57385e-05, No Iterations 1
DICPCG:  Solving for p, Initial residual = 0.00055254, Final residual = 2.43871e-05, No Iterations 7
time step continuity errors : sum local = 8.27393e-11, global = -4.80543e-13, cumulative = 2.39155e-08
DICPCG:  Solving for p, Initial residual = 0.00115846, Final residual = 3.28583e-05, No Iterations 1
DICPCG:  Solving for p, Initial residual = 0.000243887, Final residual = 1.15955e-05, No Iterations 22
DICPCG:  Solving for p, Initial residual = 7.3463e-05, Final residual = 9.62035e-07, No Iterations 44
time step continuity errors : sum local = 3.26577e-12, global = 2.28524e-13, cumulative = 2.39157e-08
ExecutionTime = 14.13 s  ClockTime = 14 s

Time = 2.15

Courant Number mean: 0.0003751 max: 0.806882
smoothSolver:  Solving for Ux, Initial residual = 0.00252849, Final residual = 1.88701e-06, No Iterations 1
smoothSolver:  Solving for Uy, Initial residual = 0.000276815, Final residual = 2.26441e-07, No Iterations 1
smoothSolver:  Solving for Uz, Initial residual = 8.98146e-05, Final residual = 1.20688e-07, No Iterations 1
DICPCG:  Solving for p, Initial residual = 0.0179985, Final residual = 0.00010577, No Iterations 2
DICPCG:  Solving for p, Initial residual = 0.00202294, Final residual = 5.99807e-05, No Iterations 1
DICPCG:  Solving for p, Initial residual = 0.000269618, Final residual = 1.15865e-05, No Iterations 9
time step continuity errors : sum local = 3.88747e-11, global = 3.95749e-12, cumulative = 2.39197e-08
DICPCG:  Solving for p, Initial residual = 0.00117198, Final residual = 2.42797e-05, No Iterations 1
DICPCG:  Solving for p, Initial residual = 0.000174802, Final residual = 8.13082e-06, No Iterations 5
DICPCG:  Solving for p, Initial residual = 6.4759e-05, Final residual = 9.52232e-07, No Iterations 106
time step continuity errors : sum local = 3.19692e-12, global = 3.14695e-13, cumulative = 2.392e-08
ExecutionTime = 14.39 s  ClockTime = 14 s

Time = 2.2

Courant Number mean: 0.000375124 max: 0.808748
smoothSolver:  Solving for Ux, Initial residual = 0.00249682, Final residual = 1.89622e-06, No Iterations 1
smoothSolver:  Solving for Uy, Initial residual = 0.000274122, Final residual = 2.32896e-07, No Iterations 1
smoothSolver:  Solving for Uz, Initial residual = 8.90969e-05, Final residual = 1.18385e-07, No Iterations 1
DICPCG:  Solving for p, Initial residual = 0.014511, Final residual = 0.000119809, No Iterations 2
DICPCG:  Solving for p, Initial residual = 0.00213351, Final residual = 7.55356e-05, No Iterations 1
DICPCG:  Solving for p, Initial residual = 0.000526417, Final residual = 2.26745e-05, No Iterations 5
time step continuity errors : sum local = 7.50694e-11, global = 5.38577e-13, cumulative = 2.39206e-08
DICPCG:  Solving for p, Initial residual = 0.000709648, Final residual = 2.73557e-05, No Iterations 1
DICPCG:  Solving for p, Initial residual = 0.000187329, Final residual = 8.63817e-06, No Iterations 7
DICPCG:  Solving for p, Initial residual = 8.94122e-05, Final residual = 9.78308e-07, No Iterations 95
time step continuity errors : sum local = 3.2387e-12, global = 2.38943e-13, cumulative = 2.39208e-08
ExecutionTime = 14.65 s  ClockTime = 14 s

Time = 2.25

Courant Number mean: 0.000375152 max: 0.810623
smoothSolver:  Solving for Ux, Initial residual = 0.0024724, Final residual = 1.9174e-06, No Iterations 1
smoothSolver:  Solving for Uy, Initial residual = 0.000271475, Final residual = 2.31288e-07, No Iterations 1
smoothSolver:  Solving for Uz, Initial residual = 8.84436e-05, Final residual = 1.19156e-07, No Iterations 1
DICPCG:  Solving for p, Initial residual = 0.0146278, Final residual = 0.000149008, No Iterations 2
DICPCG:  Solving for p, Initial residual = 0.00253301, Final residual = 8.83794e-05, No Iterations 1
DICPCG:  Solving for p, Initial residual = 0.000724714, Final residual = 3.37297e-05, No Iterations 5
time step continuity errors : sum local = 1.10418e-10, global = 1.03114e-12, cumulative = 2.39218e-08
DICPCG:  Solving for p, Initial residual = 0.0014397, Final residual = 3.23531e-05, No Iterations 1
DICPCG:  Solving for p, Initial residual = 0.000201778, Final residual = 9.63988e-06, No Iterations 23
DICPCG:  Solving for p, Initial residual = 0.000212188, Final residual = 9.50839e-07, No Iterations 62
time step continuity errors : sum local = 3.11214e-12, global = 4.48273e-13, cumulative = 2.39223e-08
ExecutionTime = 14.88 s  ClockTime = 15 s

Time = 2.3

Courant Number mean: 0.000375187 max: 0.812606
smoothSolver:  Solving for Ux, Initial residual = 0.00245323, Final residual = 1.91127e-06, No Iterations 1
smoothSolver:  Solving for Uy, Initial residual = 0.000269967, Final residual = 2.33791e-07, No Iterations 1
smoothSolver:  Solving for Uz, Initial residual = 8.79839e-05, Final residual = 1.15515e-07, No Iterations 1
DICPCG:  Solving for p, Initial residual = 0.0136533, Final residual = 9.37816e-05, No Iterations 2
DICPCG:  Solving for p, Initial residual = 0.00179902, Final residual = 6.45914e-05, No Iterations 1
DICPCG:  Solving for p, Initial residual = 0.000426554, Final residual = 1.66937e-05, No Iterations 7
time step continuity errors : sum local = 5.36574e-11, global = -3.88496e-12, cumulative = 2.39184e-08
DICPCG:  Solving for p, Initial residual = 0.00076651, Final residual = 2.28506e-05, No Iterations 1
DICPCG:  Solving for p, Initial residual = 0.000130004, Final residual = 6.38592e-06, No Iterations 20
DICPCG:  Solving for p, Initial residual = 4.89784e-05, Final residual = 9.77365e-07, No Iterations 86
time step continuity errors : sum local = 3.14042e-12, global = -1.67756e-13, cumulative = 2.39182e-08
ExecutionTime = 15.14 s  ClockTime = 15 s

Time = 2.35

Courant Number mean: 0.000375224 max: 0.814622
smoothSolver:  Solving for Ux, Initial residual = 0.00243482, Final residual = 1.90739e-06, No Iterations 1
smoothSolver:  Solving for Uy, Initial residual = 0.000267471, Final residual = 2.26673e-07, No Iterations 1
smoothSolver:  Solving for Uz, Initial residual = 8.75888e-05, Final residual = 1.12505e-07, No Iterations 1
DICPCG:  Solving for p, Initial residual = 0.0131072, Final residual = 9.88606e-05, No Iterations 2
DICPCG:  Solving for p, Initial residual = 0.00186167, Final residual = 6.13101e-05, No Iterations 1
DICPCG:  Solving for p, Initial residual = 0.000348395, Final residual = 1.57561e-05, No Iterations 7
time step continuity errors : sum local = 4.97048e-11, global = 2.24093e-13, cumulative = 2.39184e-08
DICPCG:  Solving for p, Initial residual = 0.000520603, Final residual = 2.08553e-05, No Iterations 1
DICPCG:  Solving for p, Initial residual = 8.77433e-05, Final residual = 3.91875e-06, No Iterations 25
DICPCG:  Solving for p, Initial residual = 2.91653e-05, Final residual = 9.694e-07, No Iterations 35
time step continuity errors : sum local = 3.05802e-12, global = -1.45106e-14, cumulative = 2.39184e-08
ExecutionTime = 15.35 s  ClockTime = 15 s

Time = 2.4

Courant Number mean: 0.000375266 max: 0.816611
smoothSolver:  Solving for Ux, Initial residual = 0.00241836, Final residual = 1.90019e-06, No Iterations 1
smoothSolver:  Solving for Uy, Initial residual = 0.000265123, Final residual = 2.22876e-07, No Iterations 1
smoothSolver:  Solving for Uz, Initial residual = 8.7159e-05, Final residual = 1.10686e-07, No Iterations 1
DICPCG:  Solving for p, Initial residual = 0.013008, Final residual = 0.000140236, No Iterations 2
DICPCG:  Solving for p, Initial residual = 0.00229629, Final residual = 7.65916e-05, No Iterations 1
DICPCG:  Solving for p, Initial residual = 0.000539737, Final residual = 2.33094e-05, No Iterations 6
time step continuity errors : sum local = 7.24983e-11, global = 1.11926e-12, cumulative = 2.39195e-08
DICPCG:  Solving for p, Initial residual = 0.000596228, Final residual = 2.57306e-05, No Iterations 1
DICPCG:  Solving for p, Initial residual = 0.000134962, Final residual = 5.72342e-06, No Iterations 15
DICPCG:  Solving for p, Initial residual = 5.26762e-05, Final residual = 9.81836e-07, No Iterations 43
time step continuity errors : sum local = 3.05394e-12, global = 6.8209e-13, cumulative = 2.39202e-08
ExecutionTime = 15.56 s  ClockTime = 15 s

Time = 2.45

Courant Number mean: 0.000375303 max: 0.818545
smoothSolver:  Solving for Ux, Initial residual = 0.00239984, Final residual = 1.89689e-06, No Iterations 1
smoothSolver:  Solving for Uy, Initial residual = 0.00026271, Final residual = 2.16681e-07, No Iterations 1
smoothSolver:  Solving for Uz, Initial residual = 8.6679e-05, Final residual = 1.09206e-07, No Iterations 1
DICPCG:  Solving for p, Initial residual = 0.0122665, Final residual = 9.67616e-05, No Iterations 2
DICPCG:  Solving for p, Initial residual = 0.00218374, Final residual = 6.20361e-05, No Iterations 1
DICPCG:  Solving for p, Initial residual = 0.000375861, Final residual = 1.67527e-05, No Iterations 5
time step continuity errors : sum local = 5.13072e-11, global = 9.74219e-13, cumulative = 2.39212e-08
DICPCG:  Solving for p, Initial residual = 0.00055584, Final residual = 2.09201e-05, No Iterations 1
DICPCG:  Solving for p, Initial residual = 0.000128379, Final residual = 6.26413e-06, No Iterations 10
DICPCG:  Solving for p, Initial residual = 4.00017e-05, Final residual = 9.61156e-07, No Iterations 50
time step continuity errors : sum local = 2.94337e-12, global = 4.16263e-13, cumulative = 2.39216e-08
ExecutionTime = 15.76 s  ClockTime = 16 s

Time = 2.5

Courant Number mean: 0.000375341 max: 0.820443
smoothSolver:  Solving for Ux, Initial residual = 0.00238336, Final residual = 1.88022e-06, No Iterations 1
smoothSolver:  Solving for Uy, Initial residual = 0.000260684, Final residual = 2.14719e-07, No Iterations 1
smoothSolver:  Solving for Uz, Initial residual = 8.63956e-05, Final residual = 1.0757e-07, No Iterations 1
DICPCG:  Solving for p, Initial residual = 0.0128789, Final residual = 9.20709e-05, No Iterations 2
DICPCG:  Solving for p, Initial residual = 0.0019122, Final residual = 6.76061e-05, No Iterations 1
DICPCG:  Solving for p, Initial residual = 0.00047861, Final residual = 2.27839e-05, No Iterations 4
time step continuity errors : sum local = 6.86836e-11, global = 3.3056e-13, cumulative = 2.3922e-08
DICPCG:  Solving for p, Initial residual = 0.000598432, Final residual = 2.35828e-05, No Iterations 1
DICPCG:  Solving for p, Initial residual = 0.000180667, Final residual = 8.75891e-06, No Iterations 9
DICPCG:  Solving for p, Initial residual = 5.7404e-05, Final residual = 9.89243e-07, No Iterations 51
time step continuity errors : sum local = 2.98203e-12, global = 8.82422e-14, cumulative = 2.3922e-08
ExecutionTime = 15.97 s  ClockTime = 16 s

Time = 2.55

Courant Number mean: 0.000375383 max: 0.822312
smoothSolver:  Solving for Ux, Initial residual = 0.00236308, Final residual = 1.86472e-06, No Iterations 1
smoothSolver:  Solving for Uy, Initial residual = 0.000258772, Final residual = 2.12737e-07, No Iterations 1
smoothSolver:  Solving for Uz, Initial residual = 8.61354e-05, Final residual = 1.05759e-07, No Iterations 1
DICPCG:  Solving for p, Initial residual = 0.0130491, Final residual = 8.95577e-05, No Iterations 2
DICPCG:  Solving for p, Initial residual = 0.00201545, Final residual = 7.4332e-05, No Iterations 1
DICPCG:  Solving for p, Initial residual = 0.000623475, Final residual = 2.79373e-05, No Iterations 3
time step continuity errors : sum local = 8.32288e-11, global = 1.19142e-12, cumulative = 2.39232e-08
DICPCG:  Solving for p, Initial residual = 0.00074045, Final residual = 2.36084e-05, No Iterations 1
DICPCG:  Solving for p, Initial residual = 0.00012676, Final residual = 6.13253e-06, No Iterations 19
DICPCG:  Solving for p, Initial residual = 8.1892e-05, Final residual = 9.79604e-07, No Iterations 69
time step continuity errors : sum local = 2.91772e-12, global = -1.18877e-13, cumulative = 2.39231e-08
ExecutionTime = 16.21 s  ClockTime = 16 s

Time = 2.6

Courant Number mean: 0.000375422 max: 0.824151
smoothSolver:  Solving for Ux, Initial residual = 0.00235162, Final residual = 1.83848e-06, No Iterations 1
smoothSolver:  Solving for Uy, Initial residual = 0.000256921, Final residual = 2.16725e-07, No Iterations 1
smoothSolver:  Solving for Uz, Initial residual = 8.58213e-05, Final residual = 1.03935e-07, No Iterations 1
DICPCG:  Solving for p, Initial residual = 0.015145, Final residual = 9.14545e-05, No Iterations 2
DICPCG:  Solving for p, Initial residual = 0.00181578, Final residual = 5.30349e-05, No Iterations 1
DICPCG:  Solving for p, Initial residual = 0.000301533, Final residual = 1.13507e-05, No Iterations 7
time step continuity errors : sum local = 3.35901e-11, global = 9.30442e-13, cumulative = 2.3924e-08
DICPCG:  Solving for p, Initial residual = 0.00111369, Final residual = 1.72509e-05, No Iterations 1
DICPCG:  Solving for p, Initial residual = 0.000104988, Final residual = 5.21211e-06, No Iterations 11
DICPCG:  Solving for p, Initial residual = 3.82413e-05, Final residual = 9.54066e-07, No Iterations 56
time step continuity errors : sum local = 2.82459e-12, global = 6.03272e-13, cumulative = 2.39246e-08
ExecutionTime = 16.43 s  ClockTime = 16 s

Time = 2.65

Courant Number mean: 0.000375462 max: 0.825987
smoothSolver:  Solving for Ux, Initial residual = 0.00233344, Final residual = 1.82761e-06, No Iterations 1
smoothSolver:  Solving for Uy, Initial residual = 0.000255788, Final residual = 2.25642e-07, No Iterations 1
smoothSolver:  Solving for Uz, Initial residual = 8.57781e-05, Final residual = 1.02339e-07, No Iterations 1
DICPCG:  Solving for p, Initial residual = 0.0137152, Final residual = 9.04417e-05, No Iterations 2
DICPCG:  Solving for p, Initial residual = 0.00203188, Final residual = 6.69275e-05, No Iterations 1
DICPCG:  Solving for p, Initial residual = 0.000545411, Final residual = 2.43431e-05, No Iterations 3
time step continuity errors : sum local = 7.15087e-11, global = 3.53984e-12, cumulative = 2.39282e-08
DICPCG:  Solving for p, Initial residual = 0.000783784, Final residual = 2.45559e-05, No Iterations 1
DICPCG:  Solving for p, Initial residual = 0.000193493, Final residual = 9.61689e-06, No Iterations 6
DICPCG:  Solving for p, Initial residual = 4.75068e-05, Final residual = 9.10818e-07, No Iterations 99
time step continuity errors : sum local = 2.67482e-12, global = 1.39695e-13, cumulative = 2.39283e-08
ExecutionTime = 16.68 s  ClockTime = 16 s

Time = 2.7

Courant Number mean: 0.000375508 max: 0.827827
smoothSolver:  Solving for Ux, Initial residual = 0.00232154, Final residual = 1.80944e-06, No Iterations 1
smoothSolver:  Solving for Uy, Initial residual = 0.000254666, Final residual = 2.23014e-07, No Iterations 1
smoothSolver:  Solving for Uz, Initial residual = 8.55859e-05, Final residual = 1.00566e-07, No Iterations 1
DICPCG:  Solving for p, Initial residual = 0.0137784, Final residual = 0.000103024, No Iterations 2
DICPCG:  Solving for p, Initial residual = 0.00214071, Final residual = 6.92742e-05, No Iterations 1
DICPCG:  Solving for p, Initial residual = 0.000421833, Final residual = 1.95987e-05, No Iterations 7
time step continuity errors : sum local = 5.67966e-11, global = 8.67583e-13, cumulative = 2.39292e-08
DICPCG:  Solving for p, Initial residual = 0.00097257, Final residual = 2.67797e-05, No Iterations 1
DICPCG:  Solving for p, Initial residual = 0.000150568, Final residual = 6.86263e-06, No Iterations 21
DICPCG:  Solving for p, Initial residual = 5.22157e-05, Final residual = 9.84551e-07, No Iterations 59
time step continuity errors : sum local = 2.85364e-12, global = 3.77322e-13, cumulative = 2.39296e-08
ExecutionTime = 16.91 s  ClockTime = 17 s

Time = 2.75

Courant Number mean: 0.000375555 max: 0.829685
smoothSolver:  Solving for Ux, Initial residual = 0.00230916, Final residual = 1.78599e-06, No Iterations 1
smoothSolver:  Solving for Uy, Initial residual = 0.000253563, Final residual = 2.20769e-07, No Iterations 1
smoothSolver:  Solving for Uz, Initial residual = 8.55288e-05, Final residual = 9.90587e-08, No Iterations 1
DICPCG:  Solving for p, Initial residual = 0.0137482, Final residual = 0.000105888, No Iterations 2
DICPCG:  Solving for p, Initial residual = 0.00196877, Final residual = 7.80897e-05, No Iterations 1
DICPCG:  Solving for p, Initial residual = 0.000691273, Final residual = 3.16854e-05, No Iterations 4
time step continuity errors : sum local = 9.07162e-11, global = 1.37943e-12, cumulative = 2.3931e-08
DICPCG:  Solving for p, Initial residual = 0.000901493, Final residual = 3.11257e-05, No Iterations 1
DICPCG:  Solving for p, Initial residual = 0.000266189, Final residual = 1.17246e-05, No Iterations 19
DICPCG:  Solving for p, Initial residual = 0.000164319, Final residual = 9.77786e-07, No Iterations 76
time step continuity errors : sum local = 2.7979e-12, global = 2.94346e-13, cumulative = 2.39312e-08
ExecutionTime = 17.16 s  ClockTime = 17 s

Time = 2.8

Courant Number mean: 0.000375618 max: 0.831556
smoothSolver:  Solving for Ux, Initial residual = 0.00229609, Final residual = 1.75602e-06, No Iterations 1
smoothSolver:  Solving for Uy, Initial residual = 0.000253337, Final residual = 2.20721e-07, No Iterations 1
smoothSolver:  Solving for Uz, Initial residual = 8.57191e-05, Final residual = 9.79174e-08, No Iterations 1
DICPCG:  Solving for p, Initial residual = 0.0146636, Final residual = 0.000706082, No Iterations 1
DICPCG:  Solving for p, Initial residual = 0.00275161, Final residual = 5.70839e-05, No Iterations 2
DICPCG:  Solving for p, Initial residual = 0.00129331, Final residual = 4.51978e-05, No Iterations 1
time step continuity errors : sum local = 1.28273e-10, global = 5.69235e-13, cumulative = 2.39318e-08
DICPCG:  Solving for p, Initial residual = 0.000820465, Final residual = 2.78261e-05, No Iterations 3
DICPCG:  Solving for p, Initial residual = 0.000268175, Final residual = 1.26585e-05, No Iterations 6
DICPCG:  Solving for p, Initial residual = 4.77687e-05, Final residual = 9.9029e-07, No Iterations 70
time step continuity errors : sum local = 2.80912e-12, global = -4.3358e-13, cumulative = 2.39314e-08
ExecutionTime = 17.38 s  ClockTime = 17 s

Time = 2.85

Courant Number mean: 0.000375681 max: 0.833436
smoothSolver:  Solving for Ux, Initial residual = 0.00228535, Final residual = 1.7289e-06, No Iterations 1
smoothSolver:  Solving for Uy, Initial residual = 0.000252919, Final residual = 2.18172e-07, No Iterations 1
smoothSolver:  Solving for Uz, Initial residual = 8.58648e-05, Final residual = 9.71445e-08, No Iterations 1
DICPCG:  Solving for p, Initial residual = 0.0157603, Final residual = 0.000107193, No Iterations 2
DICPCG:  Solving for p, Initial residual = 0.00239768, Final residual = 6.17119e-05, No Iterations 1
DICPCG:  Solving for p, Initial residual = 0.000378911, Final residual = 1.88115e-05, No Iterations 4
time step continuity errors : sum local = 5.29791e-11, global = -4.89691e-12, cumulative = 2.39265e-08
DICPCG:  Solving for p, Initial residual = 0.00132375, Final residual = 2.54171e-05, No Iterations 1
DICPCG:  Solving for p, Initial residual = 0.000270321, Final residual = 1.2257e-05, No Iterations 3
DICPCG:  Solving for p, Initial residual = 5.96606e-05, Final residual = 9.04792e-07, No Iterations 106
time step continuity errors : sum local = 2.54906e-12, global = -2.46679e-13, cumulative = 2.39262e-08
ExecutionTime = 17.64 s  ClockTime = 17 s

Time = 2.9

Courant Number mean: 0.000375743 max: 0.835313
smoothSolver:  Solving for Ux, Initial residual = 0.00227784, Final residual = 1.70218e-06, No Iterations 1
smoothSolver:  Solving for Uy, Initial residual = 0.000251547, Final residual = 2.13941e-07, No Iterations 1
smoothSolver:  Solving for Uz, Initial residual = 8.59748e-05, Final residual = 9.59449e-08, No Iterations 1
DICPCG:  Solving for p, Initial residual = 0.016106, Final residual = 0.000749443, No Iterations 1
DICPCG:  Solving for p, Initial residual = 0.00293802, Final residual = 6.08925e-05, No Iterations 2
DICPCG:  Solving for p, Initial residual = 0.00136616, Final residual = 4.68762e-05, No Iterations 1
time step continuity errors : sum local = 1.31829e-10, global = 5.97448e-12, cumulative = 2.39322e-08
DICPCG:  Solving for p, Initial residual = 0.00113538, Final residual = 4.44027e-05, No Iterations 1
DICPCG:  Solving for p, Initial residual = 0.000283047, Final residual = 1.39624e-05, No Iterations 9
DICPCG:  Solving for p, Initial residual = 9.82344e-05, Final residual = 9.7409e-07, No Iterations 112
time step continuity errors : sum local = 2.7398e-12, global = 2.11688e-13, cumulative = 2.39324e-08
ExecutionTime = 17.9 s  ClockTime = 18 s

Time = 2.95

Courant Number mean: 0.000375807 max: 0.837215
smoothSolver:  Solving for Ux, Initial residual = 0.00225917, Final residual = 1.67168e-06, No Iterations 1
smoothSolver:  Solving for Uy, Initial residual = 0.000250222, Final residual = 2.13983e-07, No Iterations 1
smoothSolver:  Solving for Uz, Initial residual = 8.61007e-05, Final residual = 9.41003e-08, No Iterations 1
DICPCG:  Solving for p, Initial residual = 0.0150969, Final residual = 0.00063245, No Iterations 1
DICPCG:  Solving for p, Initial residual = 0.00323737, Final residual = 5.56928e-05, No Iterations 2
DICPCG:  Solving for p, Initial residual = 0.00131849, Final residual = 4.77553e-05, No Iterations 1
time step continuity errors : sum local = 1.34778e-10, global = 2.91565e-12, cumulative = 2.39353e-08
DICPCG:  Solving for p, Initial residual = 0.000703028, Final residual = 3.17559e-05, No Iterations 3
DICPCG:  Solving for p, Initial residual = 0.000261437, Final residual = 1.19698e-05, No Iterations 7
DICPCG:  Solving for p, Initial residual = 8.48906e-05, Final residual = 9.85168e-07, No Iterations 101
time step continuity errors : sum local = 2.78103e-12, global = 2.46477e-13, cumulative = 2.39356e-08
ExecutionTime = 18.16 s  ClockTime = 18 s

Time = 3

Courant Number mean: 0.000375877 max: 0.839134
smoothSolver:  Solving for Ux, Initial residual = 0.00225138, Final residual = 1.66092e-06, No Iterations 1
smoothSolver:  Solving for Uy, Initial residual = 0.000249405, Final residual = 2.16972e-07, No Iterations 1
smoothSolver:  Solving for Uz, Initial residual = 8.64147e-05, Final residual = 9.32509e-08, No Iterations 1
DICPCG:  Solving for p, Initial residual = 0.0172653, Final residual = 0.000539482, No Iterations 1
DICPCG:  Solving for p, Initial residual = 0.00346126, Final residual = 9.97009e-05, No Iterations 2
DICPCG:  Solving for p, Initial residual = 0.00141764, Final residual = 5.90742e-05, No Iterations 3
time step continuity errors : sum local = 1.67697e-10, global = 2.38355e-12, cumulative = 2.3938e-08
DICPCG:  Solving for p, Initial residual = 0.00116969, Final residual = 5.42488e-05, No Iterations 1
DICPCG:  Solving for p, Initial residual = 0.000256125, Final residual = 1.25972e-05, No Iterations 31
DICPCG:  Solving for p, Initial residual = 0.000281937, Final residual = 9.89818e-07, No Iterations 54
time step continuity errors : sum local = 2.80912e-12, global = 3.25878e-13, cumulative = 2.39383e-08
ExecutionTime = 18.5 s  ClockTime = 18 s

Time = 3.05

Courant Number mean: 0.000375959 max: 0.841092
smoothSolver:  Solving for Ux, Initial residual = 0.00224136, Final residual = 1.64014e-06, No Iterations 1
smoothSolver:  Solving for Uy, Initial residual = 0.000249906, Final residual = 2.18072e-07, No Iterations 1
smoothSolver:  Solving for Uz, Initial residual = 8.72061e-05, Final residual = 9.28701e-08, No Iterations 1
DICPCG:  Solving for p, Initial residual = 0.0142164, Final residual = 0.00056832, No Iterations 1
DICPCG:  Solving for p, Initial residual = 0.00384628, Final residual = 6.19239e-05, No Iterations 2
DICPCG:  Solving for p, Initial residual = 0.00127278, Final residual = 4.6211e-05, No Iterations 1
time step continuity errors : sum local = 1.30777e-10, global = -7.77882e-16, cumulative = 2.39383e-08
DICPCG:  Solving for p, Initial residual = 0.000683849, Final residual = 3.30706e-05, No Iterations 3
DICPCG:  Solving for p, Initial residual = 0.00029837, Final residual = 1.45054e-05, No Iterations 6
DICPCG:  Solving for p, Initial residual = 9.17015e-05, Final residual = 9.42349e-07, No Iterations 113
time step continuity errors : sum local = 2.66707e-12, global = -2.26818e-13, cumulative = 2.39381e-08
ExecutionTime = 18.77 s  ClockTime = 19 s

Time = 3.1

Courant Number mean: 0.000376052 max: 0.843015
smoothSolver:  Solving for Ux, Initial residual = 0.00223038, Final residual = 1.62046e-06, No Iterations 1
smoothSolver:  Solving for Uy, Initial residual = 0.000248305, Final residual = 2.16634e-07, No Iterations 1
smoothSolver:  Solving for Uz, Initial residual = 8.73495e-05, Final residual = 9.30225e-08, No Iterations 1
DICPCG:  Solving for p, Initial residual = 0.0147514, Final residual = 0.000309008, No Iterations 2
DICPCG:  Solving for p, Initial residual = 0.00173357, Final residual = 8.57907e-05, No Iterations 21
DICPCG:  Solving for p, Initial residual = 0.00181661, Final residual = 6.99585e-05, No Iterations 1
time step continuity errors : sum local = 1.97531e-10, global = 5.17106e-12, cumulative = 2.39432e-08
DICPCG:  Solving for p, Initial residual = 0.00105313, Final residual = 5.09939e-05, No Iterations 1
DICPCG:  Solving for p, Initial residual = 0.00016757, Final residual = 8.07335e-06, No Iterations 90
DICPCG:  Solving for p, Initial residual = 9.83346e-05, Final residual = 9.92423e-07, No Iterations 107
time step continuity errors : sum local = 2.80804e-12, global = 3.2555e-13, cumulative = 2.39436e-08
ExecutionTime = 19.13 s  ClockTime = 19 s

Time = 3.15

Courant Number mean: 0.000376158 max: 0.844865
smoothSolver:  Solving for Ux, Initial residual = 0.0022209, Final residual = 1.60184e-06, No Iterations 1
smoothSolver:  Solving for Uy, Initial residual = 0.000244885, Final residual = 2.17357e-07, No Iterations 1
smoothSolver:  Solving for Uz, Initial residual = 8.60845e-05, Final residual = 9.08289e-08, No Iterations 1
DICPCG:  Solving for p, Initial residual = 0.0172626, Final residual = 0.00072172, No Iterations 1
DICPCG:  Solving for p, Initial residual = 0.0032783, Final residual = 0.00015336, No Iterations 4
DICPCG:  Solving for p, Initial residual = 0.00114895, Final residual = 5.25315e-05, No Iterations 20
time step continuity errors : sum local = 1.48567e-10, global = -4.33006e-12, cumulative = 2.39392e-08
DICPCG:  Solving for p, Initial residual = 0.00112742, Final residual = 4.01385e-05, No Iterations 2
DICPCG:  Solving for p, Initial residual = 0.00023162, Final residual = 1.04511e-05, No Iterations 26
DICPCG:  Solving for p, Initial residual = 5.88741e-05, Final residual = 9.93262e-07, No Iterations 76
time step continuity errors : sum local = 2.81314e-12, global = -4.96574e-13, cumulative = 2.39387e-08
ExecutionTime = 19.4 s  ClockTime = 19 s

Time = 3.2

Courant Number mean: 0.00037626 max: 0.84663
smoothSolver:  Solving for Ux, Initial residual = 0.00221073, Final residual = 1.5905e-06, No Iterations 1
smoothSolver:  Solving for Uy, Initial residual = 0.000241644, Final residual = 2.07727e-07, No Iterations 1
[...]
time step continuity errors : sum local = 1.96635e-12, global = -3.05064e-14, cumulative = 2.38275e-08
ExecutionTime = 54.08 s  ClockTime = 54 s

Time = 9.25

Courant Number mean: 0.000397442 max: 1.04087
smoothSolver:  Solving for Ux, Initial residual = 0.00150163, Final residual = 3.1025e-06, No Iterations 1
smoothSolver:  Solving for Uy, Initial residual = 0.000243536, Final residual = 3.53498e-07, No Iterations 1
smoothSolver:  Solving for Uz, Initial residual = 9.52073e-05, Final residual = 3.44837e-07, No Iterations 1
DICPCG:  Solving for p, Initial residual = 0.0180723, Final residual = 0.000804415, No Iterations 1
DICPCG:  Solving for p, Initial residual = 0.00779992, Final residual = 0.000225285, No Iterations 2
DICPCG:  Solving for p, Initial residual = 0.00194122, Final residual = 9.46527e-05, No Iterations 21
time step continuity errors : sum local = 1.96839e-10, global = 8.58018e-12, cumulative = 2.38361e-08
DICPCG:  Solving for p, Initial residual = 0.00656876, Final residual = 0.000158784, No Iterations 1
DICPCG:  Solving for p, Initial residual = 0.00135091, Final residual = 6.41295e-05, No Iterations 4
DICPCG:  Solving for p, Initial residual = 0.000490696, Final residual = 9.42508e-07, No Iterations 133
time step continuity errors : sum local = 1.95657e-12, global = 7.02352e-14, cumulative = 2.38362e-08
ExecutionTime = 54.39 s  ClockTime = 54 s

Time = 9.3

Courant Number mean: 0.000397638 max: 1.04247
smoothSolver:  Solving for Ux, Initial residual = 0.00149638, Final residual = 3.03056e-06, No Iterations 1
smoothSolver:  Solving for Uy, Initial residual = 0.000242443, Final residual = 4.01749e-07, No Iterations 1
smoothSolver:  Solving for Uz, Initial residual = 9.41974e-05, Final residual = 3.26867e-07, No Iterations 1
DICPCG:  Solving for p, Initial residual = 0.0177272, Final residual = 0.000384839, No Iterations 2
DICPCG:  Solving for p, Initial residual = 0.00655729, Final residual = 0.000187403, No Iterations 1
DICPCG:  Solving for p, Initial residual = 0.00133796, Final residual = 5.98645e-05, No Iterations 26
time step continuity errors : sum local = 1.24365e-10, global = 6.12029e-13, cumulative = 2.38368e-08
DICPCG:  Solving for p, Initial residual = 0.00693663, Final residual = 8.11249e-05, No Iterations 1
DICPCG:  Solving for p, Initial residual = 0.000624149, Final residual = 3.07726e-05, No Iterations 3
DICPCG:  Solving for p, Initial residual = 0.000252248, Final residual = 9.75081e-07, No Iterations 127
time step continuity errors : sum local = 2.02837e-12, global = 1.7662e-14, cumulative = 2.38368e-08
ExecutionTime = 54.69 s  ClockTime = 55 s

Time = 9.35

Courant Number mean: 0.000397849 max: 1.04463
smoothSolver:  Solving for Ux, Initial residual = 0.00149729, Final residual = 2.92092e-06, No Iterations 1
smoothSolver:  Solving for Uy, Initial residual = 0.000240417, Final residual = 3.94414e-07, No Iterations 1
smoothSolver:  Solving for Uz, Initial residual = 9.40471e-05, Final residual = 3.10477e-07, No Iterations 1
DICPCG:  Solving for p, Initial residual = 0.0133658, Final residual = 0.000217118, No Iterations 2
DICPCG:  Solving for p, Initial residual = 0.00590285, Final residual = 0.000147774, No Iterations 1
DICPCG:  Solving for p, Initial residual = 0.000994184, Final residual = 4.94023e-05, No Iterations 21
time step continuity errors : sum local = 1.02041e-10, global = -1.28703e-11, cumulative = 2.38239e-08
DICPCG:  Solving for p, Initial residual = 0.00466619, Final residual = 0.000108693, No Iterations 1
DICPCG:  Solving for p, Initial residual = 0.000919672, Final residual = 4.17037e-05, No Iterations 5
DICPCG:  Solving for p, Initial residual = 0.000328591, Final residual = 9.66482e-07, No Iterations 112
time step continuity errors : sum local = 1.98731e-12, global = 1.2816e-13, cumulative = 2.38241e-08
ExecutionTime = 54.97 s  ClockTime = 55 s

Time = 9.4

Courant Number mean: 0.000398067 max: 1.04647
smoothSolver:  Solving for Ux, Initial residual = 0.00149293, Final residual = 3.60213e-06, No Iterations 1
smoothSolver:  Solving for Uy, Initial residual = 0.000242423, Final residual = 4.60674e-07, No Iterations 1
smoothSolver:  Solving for Uz, Initial residual = 9.38279e-05, Final residual = 2.99102e-07, No Iterations 1
DICPCG:  Solving for p, Initial residual = 0.0238784, Final residual = 0.00107056, No Iterations 1
DICPCG:  Solving for p, Initial residual = 0.0101273, Final residual = 0.000255938, No Iterations 2
DICPCG:  Solving for p, Initial residual = 0.00344722, Final residual = 0.000161297, No Iterations 3
time step continuity errors : sum local = 3.32915e-10, global = -1.6203e-13, cumulative = 2.38239e-08
DICPCG:  Solving for p, Initial residual = 0.00809935, Final residual = 0.000127267, No Iterations 1
DICPCG:  Solving for p, Initial residual = 0.00084116, Final residual = 4.07157e-05, No Iterations 25
DICPCG:  Solving for p, Initial residual = 0.000661996, Final residual = 9.69166e-07, No Iterations 87
time step continuity errors : sum local = 2.01097e-12, global = 2.00528e-13, cumulative = 2.38241e-08
ExecutionTime = 55.23 s  ClockTime = 55 s

Time = 9.45

Courant Number mean: 0.000398312 max: 1.04911
smoothSolver:  Solving for Ux, Initial residual = 0.00149095, Final residual = 3.01419e-06, No Iterations 1
smoothSolver:  Solving for Uy, Initial residual = 0.000241386, Final residual = 4.67622e-07, No Iterations 1
smoothSolver:  Solving for Uz, Initial residual = 9.40834e-05, Final residual = 2.88235e-07, No Iterations 1
DICPCG:  Solving for p, Initial residual = 0.0187648, Final residual = 0.000439179, No Iterations 2
DICPCG:  Solving for p, Initial residual = 0.010213, Final residual = 0.00028747, No Iterations 1
DICPCG:  Solving for p, Initial residual = 0.00236172, Final residual = 0.000107115, No Iterations 6
time step continuity errors : sum local = 2.16385e-10, global = -6.03334e-12, cumulative = 2.38181e-08
DICPCG:  Solving for p, Initial residual = 0.00655657, Final residual = 0.000174005, No Iterations 1
DICPCG:  Solving for p, Initial residual = 0.00173527, Final residual = 8.1271e-05, No Iterations 2
DICPCG:  Solving for p, Initial residual = 0.000548921, Final residual = 9.68967e-07, No Iterations 143
time step continuity errors : sum local = 1.96052e-12, global = 1.34419e-13, cumulative = 2.38182e-08
ExecutionTime = 55.53 s  ClockTime = 55 s

Time = 9.5

Courant Number mean: 0.000398543 max: 1.05104
smoothSolver:  Solving for Ux, Initial residual = 0.00148752, Final residual = 3.08083e-06, No Iterations 1
smoothSolver:  Solving for Uy, Initial residual = 0.000242637, Final residual = 4.91399e-07, No Iterations 1
smoothSolver:  Solving for Uz, Initial residual = 9.35623e-05, Final residual = 2.88656e-07, No Iterations 1
DICPCG:  Solving for p, Initial residual = 0.0147596, Final residual = 0.000322299, No Iterations 2
DICPCG:  Solving for p, Initial residual = 0.00444825, Final residual = 0.000164864, No Iterations 1
DICPCG:  Solving for p, Initial residual = 0.00102042, Final residual = 5.07763e-05, No Iterations 21
time step continuity errors : sum local = 1.02259e-10, global = 3.07904e-12, cumulative = 2.38213e-08
DICPCG:  Solving for p, Initial residual = 0.00491659, Final residual = 7.20465e-05, No Iterations 1
DICPCG:  Solving for p, Initial residual = 0.000617876, Final residual = 3.04229e-05, No Iterations 22
DICPCG:  Solving for p, Initial residual = 0.000300176, Final residual = 9.75717e-07, No Iterations 118
time step continuity errors : sum local = 1.97019e-12, global = 9.12678e-14, cumulative = 2.38214e-08
ExecutionTime = 55.83 s  ClockTime = 56 s

Time = 9.55

Courant Number mean: 0.000398787 max: 1.05345
smoothSolver:  Solving for Ux, Initial residual = 0.0014845, Final residual = 3.13013e-06, No Iterations 1
smoothSolver:  Solving for Uy, Initial residual = 0.000241007, Final residual = 4.87906e-07, No Iterations 1
smoothSolver:  Solving for Uz, Initial residual = 9.37748e-05, Final residual = 2.84849e-07, No Iterations 1
DICPCG:  Solving for p, Initial residual = 0.0119724, Final residual = 0.000198308, No Iterations 2
DICPCG:  Solving for p, Initial residual = 0.00492299, Final residual = 0.000132266, No Iterations 1
DICPCG:  Solving for p, Initial residual = 0.00100441, Final residual = 5.00919e-05, No Iterations 8
time step continuity errors : sum local = 1.00484e-10, global = -4.91562e-12, cumulative = 2.38165e-08
DICPCG:  Solving for p, Initial residual = 0.00363674, Final residual = 8.81046e-05, No Iterations 1
DICPCG:  Solving for p, Initial residual = 0.000852221, Final residual = 4.012e-05, No Iterations 4
DICPCG:  Solving for p, Initial residual = 0.000352446, Final residual = 9.68802e-07, No Iterations 127
time step continuity errors : sum local = 1.94072e-12, global = 1.52694e-13, cumulative = 2.38166e-08
ExecutionTime = 56.11 s  ClockTime = 56 s

Time = 9.6

Courant Number mean: 0.00039903 max: 1.05555
smoothSolver:  Solving for Ux, Initial residual = 0.00147896, Final residual = 4.10915e-06, No Iterations 1
smoothSolver:  Solving for Uy, Initial residual = 0.000242226, Final residual = 5.66708e-07, No Iterations 1
smoothSolver:  Solving for Uz, Initial residual = 9.37685e-05, Final residual = 2.93609e-07, No Iterations 1
DICPCG:  Solving for p, Initial residual = 0.0228097, Final residual = 0.000872448, No Iterations 1
DICPCG:  Solving for p, Initial residual = 0.00849968, Final residual = 0.000267509, No Iterations 2
DICPCG:  Solving for p, Initial residual = 0.00284801, Final residual = 0.000102772, No Iterations 5
time step continuity errors : sum local = 2.08515e-10, global = 1.0412e-12, cumulative = 2.38176e-08
DICPCG:  Solving for p, Initial residual = 0.00747424, Final residual = 9.57224e-05, No Iterations 1
DICPCG:  Solving for p, Initial residual = 0.000731438, Final residual = 3.52499e-05, No Iterations 14
DICPCG:  Solving for p, Initial residual = 0.000492339, Final residual = 9.85912e-07, No Iterations 126
time step continuity errors : sum local = 2.00893e-12, global = 1.73291e-13, cumulative = 2.38178e-08
ExecutionTime = 56.4 s  ClockTime = 56 s

Time = 9.65

Courant Number mean: 0.000399294 max: 1.05844
smoothSolver:  Solving for Ux, Initial residual = 0.00147991, Final residual = 3.59026e-06, No Iterations 1
smoothSolver:  Solving for Uy, Initial residual = 0.000241889, Final residual = 5.48686e-07, No Iterations 1
smoothSolver:  Solving for Uz, Initial residual = 9.45315e-05, Final residual = 2.92685e-07, No Iterations 1
DICPCG:  Solving for p, Initial residual = 0.0234489, Final residual = 0.000867405, No Iterations 1
DICPCG:  Solving for p, Initial residual = 0.00961074, Final residual = 0.000275909, No Iterations 2
DICPCG:  Solving for p, Initial residual = 0.00268293, Final residual = 0.000115017, No Iterations 6
time step continuity errors : sum local = 2.30767e-10, global = 1.0705e-11, cumulative = 2.38285e-08
DICPCG:  Solving for p, Initial residual = 0.00895368, Final residual = 0.00015443, No Iterations 1
DICPCG:  Solving for p, Initial residual = 0.00142572, Final residual = 6.84229e-05, No Iterations 3
DICPCG:  Solving for p, Initial residual = 0.000429168, Final residual = 9.52505e-07, No Iterations 136
time step continuity errors : sum local = 1.9058e-12, global = 7.45868e-14, cumulative = 2.38286e-08
ExecutionTime = 56.69 s  ClockTime = 57 s

Time = 9.7

Courant Number mean: 0.000399533 max: 1.06057
smoothSolver:  Solving for Ux, Initial residual = 0.00147337, Final residual = 3.69303e-06, No Iterations 1
smoothSolver:  Solving for Uy, Initial residual = 0.000241092, Final residual = 5.49318e-07, No Iterations 1
smoothSolver:  Solving for Uz, Initial residual = 9.37313e-05, Final residual = 3.01856e-07, No Iterations 1
DICPCG:  Solving for p, Initial residual = 0.0148559, Final residual = 0.000539467, No Iterations 1
DICPCG:  Solving for p, Initial residual = 0.00402204, Final residual = 0.000161497, No Iterations 3
DICPCG:  Solving for p, Initial residual = 0.00186996, Final residual = 6.88391e-05, No Iterations 5
time step continuity errors : sum local = 1.38712e-10, global = -1.19456e-11, cumulative = 2.38167e-08
DICPCG:  Solving for p, Initial residual = 0.00537988, Final residual = 9.53872e-05, No Iterations 1
DICPCG:  Solving for p, Initial residual = 0.000942005, Final residual = 4.05292e-05, No Iterations 4
DICPCG:  Solving for p, Initial residual = 0.000323008, Final residual = 9.61705e-07, No Iterations 133
time step continuity errors : sum local = 1.94372e-12, global = -8.96376e-14, cumulative = 2.38166e-08
ExecutionTime = 56.97 s  ClockTime = 57 s

Time = 9.75

Courant Number mean: 0.000399787 max: 1.0632
smoothSolver:  Solving for Ux, Initial residual = 0.001472, Final residual = 4.29014e-06, No Iterations 1
smoothSolver:  Solving for Uy, Initial residual = 0.000241871, Final residual = 5.6922e-07, No Iterations 1
smoothSolver:  Solving for Uz, Initial residual = 9.44963e-05, Final residual = 3.17835e-07, No Iterations 1
DICPCG:  Solving for p, Initial residual = 0.020436, Final residual = 0.000647899, No Iterations 1
DICPCG:  Solving for p, Initial residual = 0.00945185, Final residual = 0.000208627, No Iterations 2
DICPCG:  Solving for p, Initial residual = 0.00214504, Final residual = 0.000103542, No Iterations 7
time step continuity errors : sum local = 2.12569e-10, global = 2.88574e-11, cumulative = 2.38454e-08
DICPCG:  Solving for p, Initial residual = 0.00831013, Final residual = 0.000159657, No Iterations 1
DICPCG:  Solving for p, Initial residual = 0.00145786, Final residual = 6.40025e-05, No Iterations 2
DICPCG:  Solving for p, Initial residual = 0.00040991, Final residual = 9.75078e-07, No Iterations 141
time step continuity errors : sum local = 2.01321e-12, global = -3.70243e-14, cumulative = 2.38454e-08
ExecutionTime = 57.27 s  ClockTime = 57 s

Time = 9.8

Courant Number mean: 0.000400042 max: 1.06576
smoothSolver:  Solving for Ux, Initial residual = 0.00146655, Final residual = 3.90719e-06, No Iterations 1
smoothSolver:  Solving for Uy, Initial residual = 0.000241138, Final residual = 6.37923e-07, No Iterations 1
smoothSolver:  Solving for Uz, Initial residual = 9.4557e-05, Final residual = 3.60659e-07, No Iterations 1
DICPCG:  Solving for p, Initial residual = 0.0217805, Final residual = 0.00086769, No Iterations 1
DICPCG:  Solving for p, Initial residual = 0.0100434, Final residual = 0.000233347, No Iterations 2
DICPCG:  Solving for p, Initial residual = 0.00285897, Final residual = 0.000137187, No Iterations 16
time step continuity errors : sum local = 2.84399e-10, global = 6.77791e-12, cumulative = 2.38522e-08
DICPCG:  Solving for p, Initial residual = 0.01022, Final residual = 0.000191188, No Iterations 1
DICPCG:  Solving for p, Initial residual = 0.00170533, Final residual = 8.50299e-05, No Iterations 2
DICPCG:  Solving for p, Initial residual = 0.000443975, Final residual = 9.78564e-07, No Iterations 122
time step continuity errors : sum local = 2.05211e-12, global = -3.20565e-14, cumulative = 2.38521e-08
ExecutionTime = 57.55 s  ClockTime = 57 s

Time = 9.85

Courant Number mean: 0.000400287 max: 1.06836
smoothSolver:  Solving for Ux, Initial residual = 0.00146516, Final residual = 3.81415e-06, No Iterations 1
smoothSolver:  Solving for Uy, Initial residual = 0.000240309, Final residual = 5.27233e-07, No Iterations 1
smoothSolver:  Solving for Uz, Initial residual = 9.49107e-05, Final residual = 3.94054e-07, No Iterations 1
DICPCG:  Solving for p, Initial residual = 0.0127246, Final residual = 0.000378933, No Iterations 2
DICPCG:  Solving for p, Initial residual = 0.00985809, Final residual = 0.000287255, No Iterations 1
DICPCG:  Solving for p, Initial residual = 0.00112555, Final residual = 5.42251e-05, No Iterations 70
time step continuity errors : sum local = 1.1582e-10, global = 1.84319e-11, cumulative = 2.38706e-08
DICPCG:  Solving for p, Initial residual = 0.00699726, Final residual = 0.000166414, No Iterations 1
DICPCG:  Solving for p, Initial residual = 0.00110409, Final residual = 5.50145e-05, No Iterations 5
DICPCG:  Solving for p, Initial residual = 0.000339379, Final residual = 9.31699e-07, No Iterations 132
time step continuity errors : sum local = 2.01483e-12, global = -2.11058e-14, cumulative = 2.38705e-08
ExecutionTime = 57.9 s  ClockTime = 58 s

Time = 9.9

Courant Number mean: 0.000400515 max: 1.07057
smoothSolver:  Solving for Ux, Initial residual = 0.00146287, Final residual = 3.76992e-06, No Iterations 1
smoothSolver:  Solving for Uy, Initial residual = 0.000240855, Final residual = 5.09731e-07, No Iterations 1
smoothSolver:  Solving for Uz, Initial residual = 9.47524e-05, Final residual = 4.30049e-07, No Iterations 1
DICPCG:  Solving for p, Initial residual = 0.0114455, Final residual = 0.000420768, No Iterations 2
DICPCG:  Solving for p, Initial residual = 0.00926971, Final residual = 0.000283712, No Iterations 1
DICPCG:  Solving for p, Initial residual = 0.00069543, Final residual = 3.36372e-05, No Iterations 44
time step continuity errors : sum local = 7.46112e-11, global = 1.16835e-11, cumulative = 2.38822e-08
DICPCG:  Solving for p, Initial residual = 0.00619622, Final residual = 0.000135567, No Iterations 1
DICPCG:  Solving for p, Initial residual = 0.000685819, Final residual = 3.37579e-05, No Iterations 9
DICPCG:  Solving for p, Initial residual = 0.000434358, Final residual = 9.93111e-07, No Iterations 131
time step continuity errors : sum local = 2.22079e-12, global = -1.00875e-13, cumulative = 2.38821e-08
ExecutionTime = 58.23 s  ClockTime = 58 s

Time = 9.95

Courant Number mean: 0.000400741 max: 1.07287
smoothSolver:  Solving for Ux, Initial residual = 0.00146221, Final residual = 3.73052e-06, No Iterations 1
smoothSolver:  Solving for Uy, Initial residual = 0.000244648, Final residual = 4.88934e-07, No Iterations 1
smoothSolver:  Solving for Uz, Initial residual = 9.54621e-05, Final residual = 4.56546e-07, No Iterations 1
DICPCG:  Solving for p, Initial residual = 0.0103748, Final residual = 0.00037354, No Iterations 2
DICPCG:  Solving for p, Initial residual = 0.00834616, Final residual = 0.000271021, No Iterations 1
DICPCG:  Solving for p, Initial residual = 0.000818014, Final residual = 3.89468e-05, No Iterations 39
time step continuity errors : sum local = 8.90325e-11, global = 1.26088e-11, cumulative = 2.38947e-08
DICPCG:  Solving for p, Initial residual = 0.00575086, Final residual = 0.000133568, No Iterations 1
DICPCG:  Solving for p, Initial residual = 0.000578226, Final residual = 2.87844e-05, No Iterations 9
DICPCG:  Solving for p, Initial residual = 0.000296443, Final residual = 9.49276e-07, No Iterations 128
time step continuity errors : sum local = 2.18674e-12, global = -1.85703e-13, cumulative = 2.38945e-08
ExecutionTime = 58.55 s  ClockTime = 58 s

Time = 10

Courant Number mean: 0.000400964 max: 1.07522
smoothSolver:  Solving for Ux, Initial residual = 0.00146426, Final residual = 3.92381e-06, No Iterations 1
smoothSolver:  Solving for Uy, Initial residual = 0.000248708, Final residual = 4.94549e-07, No Iterations 1
smoothSolver:  Solving for Uz, Initial residual = 9.62605e-05, Final residual = 5.01033e-07, No Iterations 1
DICPCG:  Solving for p, Initial residual = 0.0104738, Final residual = 0.000314962, No Iterations 2
DICPCG:  Solving for p, Initial residual = 0.00530069, Final residual = 0.000172147, No Iterations 1
DICPCG:  Solving for p, Initial residual = 0.000481858, Final residual = 2.37228e-05, No Iterations 59
time step continuity errors : sum local = 5.54073e-11, global = -9.97307e-12, cumulative = 2.38846e-08
DICPCG:  Solving for p, Initial residual = 0.00478998, Final residual = 9.59181e-05, No Iterations 1
DICPCG:  Solving for p, Initial residual = 0.000479462, Final residual = 2.37895e-05, No Iterations 7
DICPCG:  Solving for p, Initial residual = 0.000185672, Final residual = 9.54353e-07, No Iterations 121
time step continuity errors : sum local = 2.23977e-12, global = -1.873e-13, cumulative = 2.38844e-08
ExecutionTime = 58.99 s  ClockTime = 59 s

End

